   Input file: ../examples/ex10
  Output file: ex10.out
Database file: ../database/phreeqc.dat

------------------
Reading data base.
------------------

	SOLUTION_MASTER_SPECIES
	SOLUTION_SPECIES
	PHASES
	EXCHANGE_MASTER_SPECIES
	EXCHANGE_SPECIES
	SURFACE_MASTER_SPECIES
	SURFACE_SPECIES
	RATES
	END
------------------------------------
Reading input data for simulation 1.
------------------------------------

	TITLE Example 10.--Solid solution of strontianite and aragonite.
	PHASES
	        Strontianite
	                SrCO3 = CO3-2 + Sr+2
	                log_k           -9.271
	        Aragonite
	                CaCO3 = CO3-2 + Ca+2
	                log_k           -8.336
	END
-----
TITLE
-----

 Example 10.--Solid solution of strontianite and aragonite.

------------------
End of simulation.
------------------

------------------------------------
Reading input data for simulation 2.
------------------------------------

	SOLID_SOLUTIONS 1
	        Ca(x)Sr(1-x)CO3 
	                comp1   Aragonite       0 
	                comp2   Strontianite    0 
	                gugg_nondimensional   3.43    -1.82
	END
---------------------------------------------
Description of Solid Solution Ca(x)Sr(1-x)CO3
---------------------------------------------

	                              Temperature: 298.15 kelvin
	                       A0 (dimensionless): 3.43
	                       A1 (dimensionless): -1.82
	                              A0 (kJ/mol): 8.50307
	                              A1 (kJ/mol): -4.51183

	    Critical mole-fraction of component 2: 0.297625
	                     Critical temperature: 703.036 kelvin

(The critical temperature calculation assumes that the Guggenheim model
defined at 298.15 kelvin is valid at the critical temperature.)


	 Spinodal-gap mole fractions, component 2: 0.0654427	0.619798
	   Miscibility-gap fractions, component 2: 0.0048032	0.857863

			Eutectic Point Calculations

	     Aqueous activity ratio (comp2/comp1): 0.0981043
	 Log aqueous activity ratio (comp2/comp1): -1.00831
	 Aqueous activity fraction of component 2: 0.0893397
	                    Log IAP (component 2): -9.34631
	                    Log IAP (component 1): -8.338
	                               Log Sum Pi: -8.29736

Local minimum in the solidus curve coresponding to a maximum
in the minimum stoichiometric saturation curve.

	       Solid mole fraction of component 2: 0.198353
	                    Log IAP (component 2): -8.91133
	                    Log IAP (component 1): -8.30479
	                               Log Sum Pi: -8.20877
------------------
End of simulation.
------------------

------------------------------------
Reading input data for simulation 3.
------------------------------------

	SOLUTION 1
	        units mmol/kgw
	        pH 5.93 charge
	        Ca      3.932
	        C       7.864
	EQUILIBRIUM_PHASES 1
	        CO2(g) -0.01265 10
	        Aragonite
	SAVE solution 1
	END
-------------------------------------------
Beginning of initial solution calculations.
-------------------------------------------

Initial solution 1.	

-----------------------------Solution composition------------------------------

	Elements           Molality       Moles

	C                 7.864e-03   7.864e-03
	Ca                3.932e-03   3.932e-03

----------------------------Description of solution----------------------------

                                       pH  =   7.969      Charge balance
                                       pe  =   4.000    
      Specific Conductance (µS/cm,  25°C)  = 677
                          Density (g/cm³)  =   0.99755
                               Volume (L)  =   1.00309
                        Activity of water  =   1.000
                 Ionic strength (mol/kgw)  =   1.105e-02
                       Mass of water (kg)  =   1.000e+00
                 Total alkalinity (eq/kg)  =   7.864e-03
                       Total CO2 (mol/kg)  =   7.864e-03
                         Temperature (°C)  =  25.00
                  Electrical balance (eq)  =  -5.416e-15
 Percent error, 100*(Cat-|An|)/(Cat+|An|)  =  -0.00
                               Iterations  =   8
                                  Total H  = 1.110200e+02
                                  Total O  = 5.552965e+01

----------------------------Distribution of species----------------------------

                                               Log       Log       Log    mole V
   Species          Molality    Activity  Molality  Activity     Gamma   cm³/mol

   OH-             1.051e-06   9.415e-07    -5.978    -6.026    -0.048     -4.03
   H+              1.181e-08   1.075e-08    -7.928    -7.969    -0.041      0.00
   H2O             5.551e+01   9.998e-01     1.744    -0.000     0.000     18.07
C(-4)         0.000e+00
   CH4             0.000e+00   0.000e+00   -75.157   -75.156     0.001     35.46
C(4)          7.864e-03
   HCO3-           7.326e-03   6.602e-03    -2.135    -2.180    -0.045     24.78
   CaHCO3+         2.211e-04   1.996e-04    -3.655    -3.700    -0.044      9.73
   CO2             1.592e-04   1.596e-04    -3.798    -3.797     0.001     34.43
   CaCO3           1.144e-04   1.147e-04    -3.942    -3.940     0.001    -14.60
   CO3-2           4.368e-05   2.880e-05    -4.360    -4.541    -0.181     -4.99
   (CO2)2          4.661e-10   4.673e-10    -9.331    -9.330     0.001     68.87
Ca            3.932e-03
   Ca+2            3.596e-03   2.370e-03    -2.444    -2.625    -0.181    -17.91
   CaHCO3+         2.211e-04   1.996e-04    -3.655    -3.700    -0.044      9.73
   CaCO3           1.144e-04   1.147e-04    -3.942    -3.940     0.001    -14.60
   CaOH+           4.076e-08   3.659e-08    -7.390    -7.437    -0.047     (0)  
H(0)          1.631e-27
   H2              8.157e-28   8.178e-28   -27.088   -27.087     0.001     28.61
O(0)          1.243e-38
   O2              6.214e-39   6.230e-39   -38.207   -38.205     0.001     30.40

------------------------------Saturation indices-------------------------------

  Phase               SI** log IAP   log K(298 K,   1 atm)

  Aragonite         1.17     -7.17   -8.34  CaCO3
  Calcite           1.31     -7.17   -8.48  CaCO3
  CH4(g)          -72.35    -75.16   -2.80  CH4
  CO2(g)           -2.33     -3.80   -1.47  CO2
  H2(g)           -23.99    -27.09   -3.10  H2
  H2O(g)           -1.50     -0.00    1.50  H2O
  O2(g)           -35.31    -38.21   -2.89  O2

**For a gas, SI = log10(fugacity). Fugacity = pressure * phi / 1 atm.
  For ideal gases, phi = 1.

-----------------------------------------
Beginning of batch-reaction calculations.
-----------------------------------------

Reaction step 1.

Using solution 1.	
Using pure phase assemblage 1.	

-------------------------------Phase assemblage--------------------------------

                                                      Moles in assemblage
Phase               SI  log IAP  log K(T, P)   Initial       Final       Delta

Aragonite         0.00    -8.34     -8.34    1.000e+01   9.993e+00  -6.582e-03
CO2(g)           -0.01    -1.48     -1.47    1.000e+01   9.961e+00  -3.926e-02

-----------------------------Solution composition------------------------------

	Elements           Molality       Moles

	C                 5.372e-02   5.371e-02
	Ca                1.051e-02   1.051e-02

----------------------------Description of solution----------------------------

                                       pH  =   6.064      Charge balance
                                       pe  =  11.924      Adjusted to redox equilibrium
      Specific Conductance (µS/cm,  25°C)  = 1691
                          Density (g/cm³)  =   0.99872
                               Volume (L)  =   1.00431
                        Activity of water  =   0.999
                 Ionic strength (mol/kgw)  =   2.901e-02
                       Mass of water (kg)  =   9.999e-01
                 Total alkalinity (eq/kg)  =   2.103e-02
                       Total CO2 (mol/kg)  =   5.372e-02
                         Temperature (°C)  =  25.00
                  Electrical balance (eq)  =   3.622e-12
 Percent error, 100*(Cat-|An|)/(Cat+|An|)  =   0.00
                               Iterations  =  10
                                  Total H  = 1.110200e+02
                                  Total O  = 5.562792e+01

----------------------------Distribution of species----------------------------

                                               Log       Log       Log    mole V
   Species          Molality    Activity  Molality  Activity     Gamma   cm³/mol

   H+              9.847e-07   8.621e-07    -6.007    -6.064    -0.058      0.00
   OH-             1.386e-08   1.173e-08    -7.858    -7.931    -0.073     -3.95
   H2O             5.551e+01   9.989e-01     1.744    -0.000     0.000     18.07
C(-4)         0.000e+00
   CH4             0.000e+00   0.000e+00  -121.005  -121.002     0.003     35.46
C(4)          5.372e-02
   CO2             3.265e-02   3.287e-02    -1.486    -1.483     0.003     34.43
   HCO3-           1.976e-02   1.694e-02    -1.704    -1.771    -0.067     24.88
   CaHCO3+         1.257e-03   1.082e-03    -2.901    -2.966    -0.065      9.77
   (CO2)2          1.970e-05   1.984e-05    -4.705    -4.703     0.003     68.87
   CaCO3           7.698e-06   7.750e-06    -5.114    -5.111     0.003    -14.60
   CO3-2           1.704e-06   9.217e-07    -5.769    -6.035    -0.267     -4.74
Ca            1.051e-02
   Ca+2            9.251e-03   5.005e-03    -2.034    -2.301    -0.267    -17.74
   CaHCO3+         1.257e-03   1.082e-03    -2.901    -2.966    -0.065      9.77
   CaCO3           7.698e-06   7.750e-06    -5.114    -5.111     0.003    -14.60
   CaOH+           1.130e-09   9.625e-10    -8.947    -9.017    -0.070     (0)  
H(0)          1.481e-39
   H2              7.406e-40   7.455e-40   -39.130   -39.128     0.003     28.61
O(0)          1.487e-14
   O2              7.435e-15   7.484e-15   -14.129   -14.126     0.003     30.40

------------------------------Saturation indices-------------------------------

  Phase               SI** log IAP   log K(298 K,   1 atm)

  Aragonite         0.00     -8.34   -8.34  CaCO3
  Calcite           0.14     -8.34   -8.48  CaCO3
  CH4(g)         -118.20   -121.00   -2.80  CH4
  CO2(g)           -0.01     -1.48   -1.47  CO2	 Pressure   1.0 atm, phi 0.995
  H2(g)           -36.03    -39.13   -3.10  H2
  H2O(g)           -1.50     -0.00    1.50  H2O
  O2(g)           -11.23    -14.13   -2.89  O2

**For a gas, SI = log10(fugacity). Fugacity = pressure * phi / 1 atm.
  For ideal gases, phi = 1.

------------------
End of simulation.
------------------

------------------------------------
Reading input data for simulation 4.
------------------------------------

	USE solution 1
	USE solid_solution 1
	REACTION 1
	        SrCO3   1.0
	        .005 in 500 steps 
	PRINT
	        reset false
	        user_print true
	USER_PRINT
	start
	  10 sum = (S_S("Strontianite") + S_S("Aragonite"))
	  20 if sum = 0 THEN GOTO 110
	  30 xb = S_S("Strontianite")/sum
	  40 xc = S_S("Aragonite")/sum
	  50 PRINT "Simulation number:    ", SIM_NO
	  60 PRINT "Reaction step number: ", STEP_NO
	  70 PRINT "SrCO3 added:          ", RXN
	  80 PRINT "Log Sigma pi:         ", LOG10 (ACT("CO3-2") * (ACT("Ca+2") + ACT("Sr+2")))
	  90 PRINT "XAragonite:           ", xc
	 100 PRINT "XStrontianite:        ", xb
	 110 PRINT "XCa:                  ", TOT("Ca")/(TOT("Ca") + TOT("Sr"))
	 120 PRINT "XSr:                  ", TOT("Sr")/(TOT("Ca") + TOT("Sr"))
	 130 PRINT "Misc 1:               ", MISC1("Ca(x)Sr(1-x)CO3")
	 140 PRINT "Misc 2:               ", MISC2("Ca(x)Sr(1-x)CO3")
	end
	SELECTED_OUTPUT
	        file ex10.sel
	        reset false
	        reaction true
	USER_PUNCH
	heading   lg_SigmaPi X_Arag X_Stront X_Ca_aq X_Sr_aq mol_Misc1 mol_Misc2      mol_Arag mol_Stront
	start
	  10 sum = (S_S("Strontianite") + S_S("Aragonite"))
	  20 if sum = 0 THEN GOTO 60
	  30 xb = S_S("Strontianite")/(S_S("Strontianite") + S_S("Aragonite"))
	  40 xc = S_S("Aragonite")/(S_S("Strontianite") + S_S("Aragonite"))
	  50 REM Sigma Pi
	  60 PUNCH LOG10(ACT("CO3-2") * (ACT("Ca+2") + ACT("Sr+2")))
	  70 PUNCH xc                                 # Mole fraction aragonite
	  80 PUNCH xb                                 # Mole fraction strontianite
	  90 PUNCH TOT("Ca")/(TOT("Ca") + TOT("Sr"))  # Mole aqueous calcium
	  100 PUNCH TOT("Sr")/(TOT("Ca") + TOT("Sr")) # Mole aqueous strontium
	  110 x1 = MISC1("Ca(x)Sr(1-x)CO3")
	  120 x2 = MISC2("Ca(x)Sr(1-x)CO3")
	  130 if (xb < x1 OR xb > x2) THEN GOTO 250
	  140    nc = S_S("Aragonite")
	  150    nb = S_S("Strontianite")
	  160    mol2 = ((x1 - 1)/x1)*nb + nc
	  170    mol2 = mol2 / ( ((x1 -1)/x1)*x2 + (1 - x2))
	  180    mol1 = (nb - mol2*x2)/x1
	  190    REM                                 # Moles of misc. end members if in gap
	  200    PUNCH mol1
	  210    PUNCH mol2
	  220    GOTO 300
	  250    REM                                 # Moles of misc. end members if not in gap
	  260    PUNCH 1e-10
	  270    PUNCH 1e-10
	  300 PUNCH S_S("Aragonite")                 # Moles aragonite
	  310 PUNCH S_S("Strontianite")              # Moles Strontianite
	end
	USER_GRAPH Example 10
	        -headings x_Aragonite  x_Srontianite
	        -chart_title "Aragonite-Strontianite Solid Solution"
	        -axis_titles "Log(SrCO3 added, in moles)" "Log(Mole fraction of component)"
	        -axis_scale x_axis -5 1 1 1
	        -axis_scale y_axis -5 0.1 1 1
	        -connect_simulations true
	        -start
	  10 sum = (S_S("Strontianite") + S_S("Aragonite"))
	  20 IF sum = 0 THEN GOTO 70
	  30 xb = S_S("Strontianite")/ sum
	  40 xc = S_S("Aragonite")/ sum
	  50 PLOT_XY LOG10(RXN), LOG10(xc), line_w = 2, symbol_size = 0
	  60 PLOT_XY LOG10(RXN), LOG10(xb), line_w = 2, symbol_size = 0
	  70 rem
	  -end
	END     
----------------------------------User print-----------------------------------

Simulation number:                4 
Reaction step number:             1 
SrCO3 added:             1.0000e-05 
Log Sigma pi:           -8.3356e+00 
XAragonite:              9.9996e-01 
XStrontianite:           4.2174e-05 
XCa:                     9.9905e-01 
XSr:                     9.5080e-04 
Misc 1:                  4.8032e-03 
Misc 2:                  8.5786e-01 

----------------------------------User print-----------------------------------

Simulation number:                4 
Reaction step number:             2 
SrCO3 added:             2.0000e-05 
Log Sigma pi:           -8.3352e+00 
XAragonite:              9.9992e-01 
XStrontianite:           8.4457e-05 
XCa:                     9.9810e-01 
XSr:                     1.9009e-03 
Misc 1:                  4.8032e-03 
Misc 2:                  8.5786e-01 

----------------------------------User print-----------------------------------

Simulation number:                4 
Reaction step number:             3 
SrCO3 added:             3.0000e-05 
Log Sigma pi:           -8.3348e+00 
XAragonite:              9.9987e-01 
XStrontianite:           1.2685e-04 
XCa:                     9.9715e-01 
XSr:                     2.8504e-03 
Misc 1:                  4.8032e-03 
Misc 2:                  8.5786e-01 

----------------------------------User print-----------------------------------

Simulation number:                4 
Reaction step number:             4 
SrCO3 added:             4.0000e-05 
Log Sigma pi:           -8.3345e+00 
XAragonite:              9.9983e-01 
XStrontianite:           1.6935e-04 
XCa:                     9.9620e-01 
XSr:                     3.7992e-03 
Misc 1:                  4.8032e-03 
Misc 2:                  8.5786e-01 

----------------------------------User print-----------------------------------

Simulation number:                4 
Reaction step number:             5 
SrCO3 added:             5.0000e-05 
Log Sigma pi:           -8.3341e+00 
XAragonite:              9.9979e-01 
XStrontianite:           2.1197e-04 
XCa:                     9.9525e-01 
XSr:                     4.7472e-03 
Misc 1:                  4.8032e-03 
Misc 2:                  8.5786e-01 

----------------------------------User print-----------------------------------

Simulation number:                4 
Reaction step number:             6 
SrCO3 added:             6.0000e-05 
Log Sigma pi:           -8.3337e+00 
XAragonite:              9.9975e-01 
XStrontianite:           2.5470e-04 
XCa:                     9.9431e-01 
XSr:                     5.6947e-03 
Misc 1:                  4.8032e-03 
Misc 2:                  8.5786e-01 

----------------------------------User print-----------------------------------

Simulation number:                4 
Reaction step number:             7 
SrCO3 added:             7.0000e-05 
Log Sigma pi:           -8.3333e+00 
XAragonite:              9.9970e-01 
XStrontianite:           2.9754e-04 
XCa:                     9.9336e-01 
XSr:                     6.6414e-03 
Misc 1:                  4.8032e-03 
Misc 2:                  8.5786e-01 

----------------------------------User print-----------------------------------

Simulation number:                4 
Reaction step number:             8 
SrCO3 added:             8.0000e-05 
Log Sigma pi:           -8.3329e+00 
XAragonite:              9.9966e-01 
XStrontianite:           3.4049e-04 
XCa:                     9.9241e-01 
XSr:                     7.5875e-03 
Misc 1:                  4.8032e-03 
Misc 2:                  8.5786e-01 

----------------------------------User print-----------------------------------

Simulation number:                4 
Reaction step number:             9 
SrCO3 added:             9.0000e-05 
Log Sigma pi:           -8.3325e+00 
XAragonite:              9.9962e-01 
XStrontianite:           3.8355e-04 
XCa:                     9.9147e-01 
XSr:                     8.5329e-03 
Misc 1:                  4.8032e-03 
Misc 2:                  8.5786e-01 

----------------------------------User print-----------------------------------

Simulation number:                4 
Reaction step number:            10 
SrCO3 added:             1.0000e-04 
Log Sigma pi:           -8.3321e+00 
XAragonite:              9.9957e-01 
XStrontianite:           4.2673e-04 
XCa:                     9.9052e-01 
XSr:                     9.4776e-03 
Misc 1:                  4.8032e-03 
Misc 2:                  8.5786e-01 

----------------------------------User print-----------------------------------

Simulation number:                4 
Reaction step number:            11 
SrCO3 added:             1.1000e-04 
Log Sigma pi:           -8.3317e+00 
XAragonite:              9.9953e-01 
XStrontianite:           4.7002e-04 
XCa:                     9.8958e-01 
XSr:                     1.0422e-02 
Misc 1:                  4.8032e-03 
Misc 2:                  8.5786e-01 

----------------------------------User print-----------------------------------

Simulation number:                4 
Reaction step number:            12 
SrCO3 added:             1.2000e-04 
Log Sigma pi:           -8.3314e+00 
XAragonite:              9.9949e-01 
XStrontianite:           5.1343e-04 
XCa:                     9.8864e-01 
XSr:                     1.1365e-02 
Misc 1:                  4.8032e-03 
Misc 2:                  8.5786e-01 

----------------------------------User print-----------------------------------

Simulation number:                4 
Reaction step number:            13 
SrCO3 added:             1.3000e-04 
Log Sigma pi:           -8.3310e+00 
XAragonite:              9.9944e-01 
XStrontianite:           5.5695e-04 
XCa:                     9.8769e-01 
XSr:                     1.2308e-02 
Misc 1:                  4.8032e-03 
Misc 2:                  8.5786e-01 

----------------------------------User print-----------------------------------

Simulation number:                4 
Reaction step number:            14 
SrCO3 added:             1.4000e-04 
Log Sigma pi:           -8.3306e+00 
XAragonite:              9.9940e-01 
XStrontianite:           6.0059e-04 
XCa:                     9.8675e-01 
XSr:                     1.3250e-02 
Misc 1:                  4.8032e-03 
Misc 2:                  8.5786e-01 

----------------------------------User print-----------------------------------

Simulation number:                4 
Reaction step number:            15 
SrCO3 added:             1.5000e-04 
Log Sigma pi:           -8.3302e+00 
XAragonite:              9.9936e-01 
XStrontianite:           6.4434e-04 
XCa:                     9.8581e-01 
XSr:                     1.4191e-02 
Misc 1:                  4.8032e-03 
Misc 2:                  8.5786e-01 

----------------------------------User print-----------------------------------

Simulation number:                4 
Reaction step number:            16 
SrCO3 added:             1.6000e-04 
Log Sigma pi:           -8.3298e+00 
XAragonite:              9.9931e-01 
XStrontianite:           6.8821e-04 
XCa:                     9.8487e-01 
XSr:                     1.5132e-02 
Misc 1:                  4.8032e-03 
Misc 2:                  8.5786e-01 

----------------------------------User print-----------------------------------

Simulation number:                4 
Reaction step number:            17 
SrCO3 added:             1.7000e-04 
Log Sigma pi:           -8.3294e+00 
XAragonite:              9.9927e-01 
XStrontianite:           7.3220e-04 
XCa:                     9.8393e-01 
XSr:                     1.6072e-02 
Misc 1:                  4.8032e-03 
Misc 2:                  8.5786e-01 

----------------------------------User print-----------------------------------

Simulation number:                4 
Reaction step number:            18 
SrCO3 added:             1.8000e-04 
Log Sigma pi:           -8.3290e+00 
XAragonite:              9.9922e-01 
XStrontianite:           7.7630e-04 
XCa:                     9.8299e-01 
XSr:                     1.7011e-02 
Misc 1:                  4.8032e-03 
Misc 2:                  8.5786e-01 

----------------------------------User print-----------------------------------

Simulation number:                4 
Reaction step number:            19 
SrCO3 added:             1.9000e-04 
Log Sigma pi:           -8.3286e+00 
XAragonite:              9.9918e-01 
XStrontianite:           8.2052e-04 
XCa:                     9.8205e-01 
XSr:                     1.7949e-02 
Misc 1:                  4.8032e-03 
Misc 2:                  8.5786e-01 

----------------------------------User print-----------------------------------

Simulation number:                4 
Reaction step number:            20 
SrCO3 added:             2.0000e-04 
Log Sigma pi:           -8.3283e+00 
XAragonite:              9.9914e-01 
XStrontianite:           8.6486e-04 
XCa:                     9.8111e-01 
XSr:                     1.8887e-02 
Misc 1:                  4.8032e-03 
Misc 2:                  8.5786e-01 

----------------------------------User print-----------------------------------

Simulation number:                4 
Reaction step number:            21 
SrCO3 added:             2.1000e-04 
Log Sigma pi:           -8.3279e+00 
XAragonite:              9.9909e-01 
XStrontianite:           9.0932e-04 
XCa:                     9.8018e-01 
XSr:                     1.9825e-02 
Misc 1:                  4.8032e-03 
Misc 2:                  8.5786e-01 

----------------------------------User print-----------------------------------

Simulation number:                4 
Reaction step number:            22 
SrCO3 added:             2.2000e-04 
Log Sigma pi:           -8.3275e+00 
XAragonite:              9.9905e-01 
XStrontianite:           9.5390e-04 
XCa:                     9.7924e-01 
XSr:                     2.0761e-02 
Misc 1:                  4.8032e-03 
Misc 2:                  8.5786e-01 

----------------------------------User print-----------------------------------

Simulation number:                4 
Reaction step number:            23 
SrCO3 added:             2.3000e-04 
Log Sigma pi:           -8.3271e+00 
XAragonite:              9.9900e-01 
XStrontianite:           9.9860e-04 
XCa:                     9.7830e-01 
XSr:                     2.1697e-02 
Misc 1:                  4.8032e-03 
Misc 2:                  8.5786e-01 

----------------------------------User print-----------------------------------

Simulation number:                4 
Reaction step number:            24 
SrCO3 added:             2.4000e-04 
Log Sigma pi:           -8.3267e+00 
XAragonite:              9.9896e-01 
XStrontianite:           1.0434e-03 
XCa:                     9.7737e-01 
XSr:                     2.2632e-02 
Misc 1:                  4.8032e-03 
Misc 2:                  8.5786e-01 

----------------------------------User print-----------------------------------

Simulation number:                4 
Reaction step number:            25 
SrCO3 added:             2.5000e-04 
Log Sigma pi:           -8.3263e+00 
XAragonite:              9.9891e-01 
XStrontianite:           1.0884e-03 
XCa:                     9.7643e-01 
XSr:                     2.3567e-02 
Misc 1:                  4.8032e-03 
Misc 2:                  8.5786e-01 

----------------------------------User print-----------------------------------

Simulation number:                4 
Reaction step number:            26 
SrCO3 added:             2.6000e-04 
Log Sigma pi:           -8.3259e+00 
XAragonite:              9.9887e-01 
XStrontianite:           1.1334e-03 
XCa:                     9.7550e-01 
XSr:                     2.4501e-02 
Misc 1:                  4.8032e-03 
Misc 2:                  8.5786e-01 

----------------------------------User print-----------------------------------

Simulation number:                4 
Reaction step number:            27 
SrCO3 added:             2.7000e-04 
Log Sigma pi:           -8.3255e+00 
XAragonite:              9.9882e-01 
XStrontianite:           1.1786e-03 
XCa:                     9.7457e-01 
XSr:                     2.5434e-02 
Misc 1:                  4.8032e-03 
Misc 2:                  8.5786e-01 

----------------------------------User print-----------------------------------

Simulation number:                4 
Reaction step number:            28 
SrCO3 added:             2.8000e-04 
Log Sigma pi:           -8.3252e+00 
XAragonite:              9.9878e-01 
XStrontianite:           1.2239e-03 
XCa:                     9.7363e-01 
XSr:                     2.6367e-02 
Misc 1:                  4.8032e-03 
Misc 2:                  8.5786e-01 

----------------------------------User print-----------------------------------

Simulation number:                4 
Reaction step number:            29 
SrCO3 added:             2.9000e-04 
Log Sigma pi:           -8.3248e+00 
XAragonite:              9.9873e-01 
XStrontianite:           1.2693e-03 
XCa:                     9.7270e-01 
XSr:                     2.7298e-02 
Misc 1:                  4.8032e-03 
Misc 2:                  8.5786e-01 

----------------------------------User print-----------------------------------

Simulation number:                4 
Reaction step number:            30 
SrCO3 added:             3.0000e-04 
Log Sigma pi:           -8.3244e+00 
XAragonite:              9.9869e-01 
XStrontianite:           1.3149e-03 
XCa:                     9.7177e-01 
XSr:                     2.8230e-02 
Misc 1:                  4.8032e-03 
Misc 2:                  8.5786e-01 

----------------------------------User print-----------------------------------

Simulation number:                4 
Reaction step number:            31 
SrCO3 added:             3.1000e-04 
Log Sigma pi:           -8.3240e+00 
XAragonite:              9.9864e-01 
XStrontianite:           1.3606e-03 
XCa:                     9.7084e-01 
XSr:                     2.9160e-02 
Misc 1:                  4.8032e-03 
Misc 2:                  8.5786e-01 

----------------------------------User print-----------------------------------

Simulation number:                4 
Reaction step number:            32 
SrCO3 added:             3.2000e-04 
Log Sigma pi:           -8.3236e+00 
XAragonite:              9.9859e-01 
XStrontianite:           1.4064e-03 
XCa:                     9.6991e-01 
XSr:                     3.0090e-02 
Misc 1:                  4.8032e-03 
Misc 2:                  8.5786e-01 

----------------------------------User print-----------------------------------

Simulation number:                4 
Reaction step number:            33 
SrCO3 added:             3.3000e-04 
Log Sigma pi:           -8.3232e+00 
XAragonite:              9.9855e-01 
XStrontianite:           1.4523e-03 
XCa:                     9.6898e-01 
XSr:                     3.1019e-02 
Misc 1:                  4.8032e-03 
Misc 2:                  8.5786e-01 

----------------------------------User print-----------------------------------

Simulation number:                4 
Reaction step number:            34 
SrCO3 added:             3.4000e-04 
Log Sigma pi:           -8.3228e+00 
XAragonite:              9.9850e-01 
XStrontianite:           1.4984e-03 
XCa:                     9.6805e-01 
XSr:                     3.1948e-02 
Misc 1:                  4.8032e-03 
Misc 2:                  8.5786e-01 

----------------------------------User print-----------------------------------

Simulation number:                4 
Reaction step number:            35 
SrCO3 added:             3.5000e-04 
Log Sigma pi:           -8.3224e+00 
XAragonite:              9.9846e-01 
XStrontianite:           1.5445e-03 
XCa:                     9.6712e-01 
XSr:                     3.2875e-02 
Misc 1:                  4.8032e-03 
Misc 2:                  8.5786e-01 

----------------------------------User print-----------------------------------

Simulation number:                4 
Reaction step number:            36 
SrCO3 added:             3.6000e-04 
Log Sigma pi:           -8.3220e+00 
XAragonite:              9.9841e-01 
XStrontianite:           1.5908e-03 
XCa:                     9.6620e-01 
XSr:                     3.3803e-02 
Misc 1:                  4.8032e-03 
Misc 2:                  8.5786e-01 

----------------------------------User print-----------------------------------

Simulation number:                4 
Reaction step number:            37 
SrCO3 added:             3.7000e-04 
Log Sigma pi:           -8.3217e+00 
XAragonite:              9.9836e-01 
XStrontianite:           1.6373e-03 
XCa:                     9.6527e-01 
XSr:                     3.4729e-02 
Misc 1:                  4.8032e-03 
Misc 2:                  8.5786e-01 

----------------------------------User print-----------------------------------

Simulation number:                4 
Reaction step number:            38 
SrCO3 added:             3.8000e-04 
Log Sigma pi:           -8.3213e+00 
XAragonite:              9.9832e-01 
XStrontianite:           1.6838e-03 
XCa:                     9.6435e-01 
XSr:                     3.5655e-02 
Misc 1:                  4.8032e-03 
Misc 2:                  8.5786e-01 

----------------------------------User print-----------------------------------

Simulation number:                4 
Reaction step number:            39 
SrCO3 added:             3.9000e-04 
Log Sigma pi:           -8.3209e+00 
XAragonite:              9.9827e-01 
XStrontianite:           1.7305e-03 
XCa:                     9.6342e-01 
XSr:                     3.6580e-02 
Misc 1:                  4.8032e-03 
Misc 2:                  8.5786e-01 

----------------------------------User print-----------------------------------

Simulation number:                4 
Reaction step number:            40 
SrCO3 added:             4.0000e-04 
Log Sigma pi:           -8.3205e+00 
XAragonite:              9.9822e-01 
XStrontianite:           1.7774e-03 
XCa:                     9.6250e-01 
XSr:                     3.7504e-02 
Misc 1:                  4.8032e-03 
Misc 2:                  8.5786e-01 

----------------------------------User print-----------------------------------

Simulation number:                4 
Reaction step number:            41 
SrCO3 added:             4.1000e-04 
Log Sigma pi:           -8.3201e+00 
XAragonite:              9.9818e-01 
XStrontianite:           1.8243e-03 
XCa:                     9.6157e-01 
XSr:                     3.8428e-02 
Misc 1:                  4.8032e-03 
Misc 2:                  8.5786e-01 

----------------------------------User print-----------------------------------

Simulation number:                4 
Reaction step number:            42 
SrCO3 added:             4.2000e-04 
Log Sigma pi:           -8.3197e+00 
XAragonite:              9.9813e-01 
XStrontianite:           1.8714e-03 
XCa:                     9.6065e-01 
XSr:                     3.9351e-02 
Misc 1:                  4.8032e-03 
Misc 2:                  8.5786e-01 

----------------------------------User print-----------------------------------

Simulation number:                4 
Reaction step number:            43 
SrCO3 added:             4.3000e-04 
Log Sigma pi:           -8.3193e+00 
XAragonite:              9.9808e-01 
XStrontianite:           1.9186e-03 
XCa:                     9.5973e-01 
XSr:                     4.0273e-02 
Misc 1:                  4.8032e-03 
Misc 2:                  8.5786e-01 

----------------------------------User print-----------------------------------

Simulation number:                4 
Reaction step number:            44 
SrCO3 added:             4.4000e-04 
Log Sigma pi:           -8.3189e+00 
XAragonite:              9.9803e-01 
XStrontianite:           1.9660e-03 
XCa:                     9.5880e-01 
XSr:                     4.1195e-02 
Misc 1:                  4.8032e-03 
Misc 2:                  8.5786e-01 

----------------------------------User print-----------------------------------

Simulation number:                4 
Reaction step number:            45 
SrCO3 added:             4.5000e-04 
Log Sigma pi:           -8.3185e+00 
XAragonite:              9.9799e-01 
XStrontianite:           2.0134e-03 
XCa:                     9.5788e-01 
XSr:                     4.2116e-02 
Misc 1:                  4.8032e-03 
Misc 2:                  8.5786e-01 

----------------------------------User print-----------------------------------

Simulation number:                4 
Reaction step number:            46 
SrCO3 added:             4.6000e-04 
Log Sigma pi:           -8.3182e+00 
XAragonite:              9.9794e-01 
XStrontianite:           2.0610e-03 
XCa:                     9.5696e-01 
XSr:                     4.3037e-02 
Misc 1:                  4.8032e-03 
Misc 2:                  8.5786e-01 

----------------------------------User print-----------------------------------

Simulation number:                4 
Reaction step number:            47 
SrCO3 added:             4.7000e-04 
Log Sigma pi:           -8.3178e+00 
XAragonite:              9.9789e-01 
XStrontianite:           2.1088e-03 
XCa:                     9.5604e-01 
XSr:                     4.3956e-02 
Misc 1:                  4.8032e-03 
Misc 2:                  8.5786e-01 

----------------------------------User print-----------------------------------

Simulation number:                4 
Reaction step number:            48 
SrCO3 added:             4.8000e-04 
Log Sigma pi:           -8.3174e+00 
XAragonite:              9.9784e-01 
XStrontianite:           2.1567e-03 
XCa:                     9.5512e-01 
XSr:                     4.4875e-02 
Misc 1:                  4.8032e-03 
Misc 2:                  8.5786e-01 

----------------------------------User print-----------------------------------

Simulation number:                4 
Reaction step number:            49 
SrCO3 added:             4.9000e-04 
Log Sigma pi:           -8.3170e+00 
XAragonite:              9.9780e-01 
XStrontianite:           2.2047e-03 
XCa:                     9.5421e-01 
XSr:                     4.5794e-02 
Misc 1:                  4.8032e-03 
Misc 2:                  8.5786e-01 

----------------------------------User print-----------------------------------

Simulation number:                4 
Reaction step number:            50 
SrCO3 added:             5.0000e-04 
Log Sigma pi:           -8.3166e+00 
XAragonite:              9.9775e-01 
XStrontianite:           2.2528e-03 
XCa:                     9.5329e-01 
XSr:                     4.6711e-02 
Misc 1:                  4.8032e-03 
Misc 2:                  8.5786e-01 

----------------------------------User print-----------------------------------

Simulation number:                4 
Reaction step number:            51 
SrCO3 added:             5.1000e-04 
Log Sigma pi:           -8.3162e+00 
XAragonite:              9.9770e-01 
XStrontianite:           2.3011e-03 
XCa:                     9.5237e-01 
XSr:                     4.7628e-02 
Misc 1:                  4.8032e-03 
Misc 2:                  8.5786e-01 

----------------------------------User print-----------------------------------

Simulation number:                4 
Reaction step number:            52 
SrCO3 added:             5.2000e-04 
Log Sigma pi:           -8.3158e+00 
XAragonite:              9.9765e-01 
XStrontianite:           2.3495e-03 
XCa:                     9.5146e-01 
XSr:                     4.8545e-02 
Misc 1:                  4.8032e-03 
Misc 2:                  8.5786e-01 

----------------------------------User print-----------------------------------

Simulation number:                4 
Reaction step number:            53 
SrCO3 added:             5.3000e-04 
Log Sigma pi:           -8.3154e+00 
XAragonite:              9.9760e-01 
XStrontianite:           2.3981e-03 
XCa:                     9.5054e-01 
XSr:                     4.9460e-02 
Misc 1:                  4.8032e-03 
Misc 2:                  8.5786e-01 

----------------------------------User print-----------------------------------

Simulation number:                4 
Reaction step number:            54 
SrCO3 added:             5.4000e-04 
Log Sigma pi:           -8.3150e+00 
XAragonite:              9.9755e-01 
XStrontianite:           2.4468e-03 
XCa:                     9.4962e-01 
XSr:                     5.0375e-02 
Misc 1:                  4.8032e-03 
Misc 2:                  8.5786e-01 

----------------------------------User print-----------------------------------

Simulation number:                4 
Reaction step number:            55 
SrCO3 added:             5.5000e-04 
Log Sigma pi:           -8.3146e+00 
XAragonite:              9.9750e-01 
XStrontianite:           2.4956e-03 
XCa:                     9.4871e-01 
XSr:                     5.1289e-02 
Misc 1:                  4.8032e-03 
Misc 2:                  8.5786e-01 

----------------------------------User print-----------------------------------

Simulation number:                4 
Reaction step number:            56 
SrCO3 added:             5.6000e-04 
Log Sigma pi:           -8.3143e+00 
XAragonite:              9.9746e-01 
XStrontianite:           2.5446e-03 
XCa:                     9.4780e-01 
XSr:                     5.2203e-02 
Misc 1:                  4.8032e-03 
Misc 2:                  8.5786e-01 

----------------------------------User print-----------------------------------

Simulation number:                4 
Reaction step number:            57 
SrCO3 added:             5.7000e-04 
Log Sigma pi:           -8.3139e+00 
XAragonite:              9.9741e-01 
XStrontianite:           2.5937e-03 
XCa:                     9.4688e-01 
XSr:                     5.3116e-02 
Misc 1:                  4.8032e-03 
Misc 2:                  8.5786e-01 

----------------------------------User print-----------------------------------

Simulation number:                4 
Reaction step number:            58 
SrCO3 added:             5.8000e-04 
Log Sigma pi:           -8.3135e+00 
XAragonite:              9.9736e-01 
XStrontianite:           2.6430e-03 
XCa:                     9.4597e-01 
XSr:                     5.4028e-02 
Misc 1:                  4.8032e-03 
Misc 2:                  8.5786e-01 

----------------------------------User print-----------------------------------

Simulation number:                4 
Reaction step number:            59 
SrCO3 added:             5.9000e-04 
Log Sigma pi:           -8.3131e+00 
XAragonite:              9.9731e-01 
XStrontianite:           2.6924e-03 
XCa:                     9.4506e-01 
XSr:                     5.4940e-02 
Misc 1:                  4.8032e-03 
Misc 2:                  8.5786e-01 

----------------------------------User print-----------------------------------

Simulation number:                4 
Reaction step number:            60 
SrCO3 added:             6.0000e-04 
Log Sigma pi:           -8.3127e+00 
XAragonite:              9.9726e-01 
XStrontianite:           2.7419e-03 
XCa:                     9.4415e-01 
XSr:                     5.5851e-02 
Misc 1:                  4.8032e-03 
Misc 2:                  8.5786e-01 

----------------------------------User print-----------------------------------

Simulation number:                4 
Reaction step number:            61 
SrCO3 added:             6.1000e-04 
Log Sigma pi:           -8.3123e+00 
XAragonite:              9.9721e-01 
XStrontianite:           2.7916e-03 
XCa:                     9.4324e-01 
XSr:                     5.6761e-02 
Misc 1:                  4.8032e-03 
Misc 2:                  8.5786e-01 

----------------------------------User print-----------------------------------

Simulation number:                4 
Reaction step number:            62 
SrCO3 added:             6.2000e-04 
Log Sigma pi:           -8.3119e+00 
XAragonite:              9.9716e-01 
XStrontianite:           2.8414e-03 
XCa:                     9.4233e-01 
XSr:                     5.7671e-02 
Misc 1:                  4.8032e-03 
Misc 2:                  8.5786e-01 

----------------------------------User print-----------------------------------

Simulation number:                4 
Reaction step number:            63 
SrCO3 added:             6.3000e-04 
Log Sigma pi:           -8.3115e+00 
XAragonite:              9.9711e-01 
XStrontianite:           2.8914e-03 
XCa:                     9.4142e-01 
XSr:                     5.8580e-02 
Misc 1:                  4.8032e-03 
Misc 2:                  8.5786e-01 

----------------------------------User print-----------------------------------

Simulation number:                4 
Reaction step number:            64 
SrCO3 added:             6.4000e-04 
Log Sigma pi:           -8.3111e+00 
XAragonite:              9.9706e-01 
XStrontianite:           2.9415e-03 
XCa:                     9.4051e-01 
XSr:                     5.9488e-02 
Misc 1:                  4.8032e-03 
Misc 2:                  8.5786e-01 

----------------------------------User print-----------------------------------

Simulation number:                4 
Reaction step number:            65 
SrCO3 added:             6.5000e-04 
Log Sigma pi:           -8.3107e+00 
XAragonite:              9.9701e-01 
XStrontianite:           2.9918e-03 
XCa:                     9.3960e-01 
XSr:                     6.0395e-02 
Misc 1:                  4.8032e-03 
Misc 2:                  8.5786e-01 

----------------------------------User print-----------------------------------

Simulation number:                4 
Reaction step number:            66 
SrCO3 added:             6.6000e-04 
Log Sigma pi:           -8.3104e+00 
XAragonite:              9.9696e-01 
XStrontianite:           3.0422e-03 
XCa:                     9.3870e-01 
XSr:                     6.1302e-02 
Misc 1:                  4.8032e-03 
Misc 2:                  8.5786e-01 

----------------------------------User print-----------------------------------

Simulation number:                4 
Reaction step number:            67 
SrCO3 added:             6.7000e-04 
Log Sigma pi:           -8.3100e+00 
XAragonite:              9.9691e-01 
XStrontianite:           3.0927e-03 
XCa:                     9.3779e-01 
XSr:                     6.2208e-02 
Misc 1:                  4.8032e-03 
Misc 2:                  8.5786e-01 

----------------------------------User print-----------------------------------

Simulation number:                4 
Reaction step number:            68 
SrCO3 added:             6.8000e-04 
Log Sigma pi:           -8.3096e+00 
XAragonite:              9.9686e-01 
XStrontianite:           3.1434e-03 
XCa:                     9.3689e-01 
XSr:                     6.3114e-02 
Misc 1:                  4.8032e-03 
Misc 2:                  8.5786e-01 

----------------------------------User print-----------------------------------

Simulation number:                4 
Reaction step number:            69 
SrCO3 added:             6.9000e-04 
Log Sigma pi:           -8.3092e+00 
XAragonite:              9.9681e-01 
XStrontianite:           3.1943e-03 
XCa:                     9.3598e-01 
XSr:                     6.4019e-02 
Misc 1:                  4.8032e-03 
Misc 2:                  8.5786e-01 

----------------------------------User print-----------------------------------

Simulation number:                4 
Reaction step number:            70 
SrCO3 added:             7.0000e-04 
Log Sigma pi:           -8.3088e+00 
XAragonite:              9.9675e-01 
XStrontianite:           3.2453e-03 
XCa:                     9.3508e-01 
XSr:                     6.4923e-02 
Misc 1:                  4.8032e-03 
Misc 2:                  8.5786e-01 

----------------------------------User print-----------------------------------

Simulation number:                4 
Reaction step number:            71 
SrCO3 added:             7.1000e-04 
Log Sigma pi:           -8.3084e+00 
XAragonite:              9.9670e-01 
XStrontianite:           3.2964e-03 
XCa:                     9.3417e-01 
XSr:                     6.5826e-02 
Misc 1:                  4.8032e-03 
Misc 2:                  8.5786e-01 

----------------------------------User print-----------------------------------

Simulation number:                4 
Reaction step number:            72 
SrCO3 added:             7.2000e-04 
Log Sigma pi:           -8.3080e+00 
XAragonite:              9.9665e-01 
XStrontianite:           3.3477e-03 
XCa:                     9.3327e-01 
XSr:                     6.6729e-02 
Misc 1:                  4.8032e-03 
Misc 2:                  8.5786e-01 

----------------------------------User print-----------------------------------

Simulation number:                4 
Reaction step number:            73 
SrCO3 added:             7.3000e-04 
Log Sigma pi:           -8.3076e+00 
XAragonite:              9.9660e-01 
XStrontianite:           3.3991e-03 
XCa:                     9.3237e-01 
XSr:                     6.7631e-02 
Misc 1:                  4.8032e-03 
Misc 2:                  8.5786e-01 

----------------------------------User print-----------------------------------

Simulation number:                4 
Reaction step number:            74 
SrCO3 added:             7.4000e-04 
Log Sigma pi:           -8.3072e+00 
XAragonite:              9.9655e-01 
XStrontianite:           3.4507e-03 
XCa:                     9.3147e-01 
XSr:                     6.8533e-02 
Misc 1:                  4.8032e-03 
Misc 2:                  8.5786e-01 

----------------------------------User print-----------------------------------

Simulation number:                4 
Reaction step number:            75 
SrCO3 added:             7.5000e-04 
Log Sigma pi:           -8.3068e+00 
XAragonite:              9.9650e-01 
XStrontianite:           3.5025e-03 
XCa:                     9.3057e-01 
XSr:                     6.9434e-02 
Misc 1:                  4.8032e-03 
Misc 2:                  8.5786e-01 

----------------------------------User print-----------------------------------

Simulation number:                4 
Reaction step number:            76 
SrCO3 added:             7.6000e-04 
Log Sigma pi:           -8.3064e+00 
XAragonite:              9.9645e-01 
XStrontianite:           3.5544e-03 
XCa:                     9.2967e-01 
XSr:                     7.0334e-02 
Misc 1:                  4.8032e-03 
Misc 2:                  8.5786e-01 

----------------------------------User print-----------------------------------

Simulation number:                4 
Reaction step number:            77 
SrCO3 added:             7.7000e-04 
Log Sigma pi:           -8.3061e+00 
XAragonite:              9.9639e-01 
XStrontianite:           3.6065e-03 
XCa:                     9.2877e-01 
XSr:                     7.1233e-02 
Misc 1:                  4.8032e-03 
Misc 2:                  8.5786e-01 

----------------------------------User print-----------------------------------

Simulation number:                4 
Reaction step number:            78 
SrCO3 added:             7.8000e-04 
Log Sigma pi:           -8.3057e+00 
XAragonite:              9.9634e-01 
XStrontianite:           3.6587e-03 
XCa:                     9.2787e-01 
XSr:                     7.2132e-02 
Misc 1:                  4.8032e-03 
Misc 2:                  8.5786e-01 

----------------------------------User print-----------------------------------

Simulation number:                4 
Reaction step number:            79 
SrCO3 added:             7.9000e-04 
Log Sigma pi:           -8.3053e+00 
XAragonite:              9.9629e-01 
XStrontianite:           3.7110e-03 
XCa:                     9.2697e-01 
XSr:                     7.3030e-02 
Misc 1:                  4.8032e-03 
Misc 2:                  8.5786e-01 

----------------------------------User print-----------------------------------

Simulation number:                4 
Reaction step number:            80 
SrCO3 added:             8.0000e-04 
Log Sigma pi:           -8.3049e+00 
XAragonite:              9.9624e-01 
XStrontianite:           3.7636e-03 
XCa:                     9.2607e-01 
XSr:                     7.3928e-02 
Misc 1:                  4.8032e-03 
Misc 2:                  8.5786e-01 

----------------------------------User print-----------------------------------

Simulation number:                4 
Reaction step number:            81 
SrCO3 added:             8.1000e-04 
Log Sigma pi:           -8.3045e+00 
XAragonite:              9.9618e-01 
XStrontianite:           3.8163e-03 
XCa:                     9.2518e-01 
XSr:                     7.4824e-02 
Misc 1:                  4.8032e-03 
Misc 2:                  8.5786e-01 

----------------------------------User print-----------------------------------

Simulation number:                4 
Reaction step number:            82 
SrCO3 added:             8.2000e-04 
Log Sigma pi:           -8.3041e+00 
XAragonite:              9.9613e-01 
XStrontianite:           3.8691e-03 
XCa:                     9.2428e-01 
XSr:                     7.5720e-02 
Misc 1:                  4.8032e-03 
Misc 2:                  8.5786e-01 

----------------------------------User print-----------------------------------

Simulation number:                4 
Reaction step number:            83 
SrCO3 added:             8.3000e-04 
Log Sigma pi:           -8.3037e+00 
XAragonite:              9.9608e-01 
XStrontianite:           3.9221e-03 
XCa:                     9.2338e-01 
XSr:                     7.6616e-02 
Misc 1:                  4.8032e-03 
Misc 2:                  8.5786e-01 

----------------------------------User print-----------------------------------

Simulation number:                4 
Reaction step number:            84 
SrCO3 added:             8.4000e-04 
Log Sigma pi:           -8.3033e+00 
XAragonite:              9.9602e-01 
XStrontianite:           3.9753e-03 
XCa:                     9.2249e-01 
XSr:                     7.7511e-02 
Misc 1:                  4.8032e-03 
Misc 2:                  8.5786e-01 

----------------------------------User print-----------------------------------

Simulation number:                4 
Reaction step number:            85 
SrCO3 added:             8.5000e-04 
Log Sigma pi:           -8.3029e+00 
XAragonite:              9.9597e-01 
XStrontianite:           4.0286e-03 
XCa:                     9.2160e-01 
XSr:                     7.8405e-02 
Misc 1:                  4.8032e-03 
Misc 2:                  8.5786e-01 

----------------------------------User print-----------------------------------

Simulation number:                4 
Reaction step number:            86 
SrCO3 added:             8.6000e-04 
Log Sigma pi:           -8.3025e+00 
XAragonite:              9.9592e-01 
XStrontianite:           4.0821e-03 
XCa:                     9.2070e-01 
XSr:                     7.9298e-02 
Misc 1:                  4.8032e-03 
Misc 2:                  8.5786e-01 

----------------------------------User print-----------------------------------

Simulation number:                4 
Reaction step number:            87 
SrCO3 added:             8.7000e-04 
Log Sigma pi:           -8.3021e+00 
XAragonite:              9.9586e-01 
XStrontianite:           4.1357e-03 
XCa:                     9.1981e-01 
XSr:                     8.0191e-02 
Misc 1:                  4.8032e-03 
Misc 2:                  8.5786e-01 

----------------------------------User print-----------------------------------

Simulation number:                4 
Reaction step number:            88 
SrCO3 added:             8.8000e-04 
Log Sigma pi:           -8.3017e+00 
XAragonite:              9.9581e-01 
XStrontianite:           4.1895e-03 
XCa:                     9.1892e-01 
XSr:                     8.1083e-02 
Misc 1:                  4.8032e-03 
Misc 2:                  8.5786e-01 

----------------------------------User print-----------------------------------

Simulation number:                4 
Reaction step number:            89 
SrCO3 added:             8.9000e-04 
Log Sigma pi:           -8.3014e+00 
XAragonite:              9.9576e-01 
XStrontianite:           4.2435e-03 
XCa:                     9.1803e-01 
XSr:                     8.1974e-02 
Misc 1:                  4.8032e-03 
Misc 2:                  8.5786e-01 

----------------------------------User print-----------------------------------

Simulation number:                4 
Reaction step number:            90 
SrCO3 added:             9.0000e-04 
Log Sigma pi:           -8.3010e+00 
XAragonite:              9.9570e-01 
XStrontianite:           4.2976e-03 
XCa:                     9.1714e-01 
XSr:                     8.2865e-02 
Misc 1:                  4.8032e-03 
Misc 2:                  8.5786e-01 

----------------------------------User print-----------------------------------

Simulation number:                4 
Reaction step number:            91 
SrCO3 added:             9.1000e-04 
Log Sigma pi:           -8.3006e+00 
XAragonite:              9.9565e-01 
XStrontianite:           4.3519e-03 
XCa:                     9.1625e-01 
XSr:                     8.3755e-02 
Misc 1:                  4.8032e-03 
Misc 2:                  8.5786e-01 

----------------------------------User print-----------------------------------

Simulation number:                4 
Reaction step number:            92 
SrCO3 added:             9.2000e-04 
Log Sigma pi:           -8.3002e+00 
XAragonite:              9.9559e-01 
XStrontianite:           4.4064e-03 
XCa:                     9.1536e-01 
XSr:                     8.4644e-02 
Misc 1:                  4.8032e-03 
Misc 2:                  8.5786e-01 

----------------------------------User print-----------------------------------

Simulation number:                4 
Reaction step number:            93 
SrCO3 added:             9.3000e-04 
Log Sigma pi:           -8.2998e+00 
XAragonite:              9.9554e-01 
XStrontianite:           4.4610e-03 
XCa:                     9.1447e-01 
XSr:                     8.5533e-02 
Misc 1:                  4.8032e-03 
Misc 2:                  8.5786e-01 

----------------------------------User print-----------------------------------

Simulation number:                4 
Reaction step number:            94 
SrCO3 added:             9.4000e-04 
Log Sigma pi:           -8.2994e+00 
XAragonite:              9.9548e-01 
XStrontianite:           4.5158e-03 
XCa:                     9.1358e-01 
XSr:                     8.6421e-02 
Misc 1:                  4.8032e-03 
Misc 2:                  8.5786e-01 

----------------------------------User print-----------------------------------

Simulation number:                4 
Reaction step number:            95 
SrCO3 added:             9.5000e-04 
Log Sigma pi:           -8.2990e+00 
XAragonite:              9.9543e-01 
XStrontianite:           4.5708e-03 
XCa:                     9.1269e-01 
XSr:                     8.7308e-02 
Misc 1:                  4.8032e-03 
Misc 2:                  8.5786e-01 

----------------------------------User print-----------------------------------

Simulation number:                4 
Reaction step number:            96 
SrCO3 added:             9.6000e-04 
Log Sigma pi:           -8.2986e+00 
XAragonite:              9.9537e-01 
XStrontianite:           4.6259e-03 
XCa:                     9.1181e-01 
XSr:                     8.8195e-02 
Misc 1:                  4.8032e-03 
Misc 2:                  8.5786e-01 

----------------------------------User print-----------------------------------

Simulation number:                4 
Reaction step number:            97 
SrCO3 added:             9.7000e-04 
Log Sigma pi:           -8.2982e+00 
XAragonite:              9.9532e-01 
XStrontianite:           4.6812e-03 
XCa:                     9.1092e-01 
XSr:                     8.9081e-02 
Misc 1:                  4.8032e-03 
Misc 2:                  8.5786e-01 

----------------------------------User print-----------------------------------

Simulation number:                4 
Reaction step number:            98 
SrCO3 added:             9.8000e-04 
Log Sigma pi:           -8.2978e+00 
XAragonite:              9.9526e-01 
XStrontianite:           4.7367e-03 
XCa:                     9.1003e-01 
XSr:                     8.9966e-02 
Misc 1:                  4.8032e-03 
Misc 2:                  8.5786e-01 

----------------------------------User print-----------------------------------

Simulation number:                4 
Reaction step number:            99 
SrCO3 added:             9.9000e-04 
Log Sigma pi:           -8.2974e+00 
XAragonite:              9.9521e-01 
XStrontianite:           4.7924e-03 
XCa:                     9.0915e-01 
XSr:                     9.0851e-02 
Misc 1:                  4.8032e-03 
Misc 2:                  8.5786e-01 

----------------------------------User print-----------------------------------

Simulation number:                4 
Reaction step number:           100 
SrCO3 added:             1.0000e-03 
Log Sigma pi:           -8.2974e+00 
XAragonite:              9.8286e-01 
XStrontianite:           1.7141e-02 
XCa:                     9.0898e-01 
XSr:                     9.1023e-02 
Misc 1:                  4.8032e-03 
Misc 2:                  8.5786e-01 

----------------------------------User print-----------------------------------

Simulation number:                4 
Reaction step number:           101 
SrCO3 added:             1.0100e-03 
Log Sigma pi:           -8.2974e+00 
XAragonite:              9.6796e-01 
XStrontianite:           3.2039e-02 
XCa:                     9.0898e-01 
XSr:                     9.1023e-02 
Misc 1:                  4.8032e-03 
Misc 2:                  8.5786e-01 

----------------------------------User print-----------------------------------

Simulation number:                4 
Reaction step number:           102 
SrCO3 added:             1.0200e-03 
Log Sigma pi:           -8.2974e+00 
XAragonite:              9.5351e-01 
XStrontianite:           4.6492e-02 
XCa:                     9.0898e-01 
XSr:                     9.1023e-02 
Misc 1:                  4.8032e-03 
Misc 2:                  8.5786e-01 

----------------------------------User print-----------------------------------

Simulation number:                4 
Reaction step number:           103 
SrCO3 added:             1.0300e-03 
Log Sigma pi:           -8.2974e+00 
XAragonite:              9.3948e-01 
XStrontianite:           6.0519e-02 
XCa:                     9.0898e-01 
XSr:                     9.1023e-02 
Misc 1:                  4.8032e-03 
Misc 2:                  8.5786e-01 

----------------------------------User print-----------------------------------

Simulation number:                4 
Reaction step number:           104 
SrCO3 added:             1.0400e-03 
Log Sigma pi:           -8.2974e+00 
XAragonite:              9.2586e-01 
XStrontianite:           7.4140e-02 
XCa:                     9.0898e-01 
XSr:                     9.1023e-02 
Misc 1:                  4.8032e-03 
Misc 2:                  8.5786e-01 

----------------------------------User print-----------------------------------

Simulation number:                4 
Reaction step number:           105 
SrCO3 added:             1.0500e-03 
Log Sigma pi:           -8.2974e+00 
XAragonite:              9.1263e-01 
XStrontianite:           8.7372e-02 
XCa:                     9.0898e-01 
XSr:                     9.1023e-02 
Misc 1:                  4.8032e-03 
Misc 2:                  8.5786e-01 

----------------------------------User print-----------------------------------

Simulation number:                4 
Reaction step number:           106 
SrCO3 added:             1.0600e-03 
Log Sigma pi:           -8.2974e+00 
XAragonite:              8.9977e-01 
XStrontianite:           1.0023e-01 
XCa:                     9.0898e-01 
XSr:                     9.1023e-02 
Misc 1:                  4.8032e-03 
Misc 2:                  8.5786e-01 

----------------------------------User print-----------------------------------

Simulation number:                4 
Reaction step number:           107 
SrCO3 added:             1.0700e-03 
Log Sigma pi:           -8.2974e+00 
XAragonite:              8.8727e-01 
XStrontianite:           1.1273e-01 
XCa:                     9.0898e-01 
XSr:                     9.1023e-02 
Misc 1:                  4.8032e-03 
Misc 2:                  8.5786e-01 

----------------------------------User print-----------------------------------

Simulation number:                4 
Reaction step number:           108 
SrCO3 added:             1.0800e-03 
Log Sigma pi:           -8.2974e+00 
XAragonite:              8.7511e-01 
XStrontianite:           1.2489e-01 
XCa:                     9.0898e-01 
XSr:                     9.1023e-02 
Misc 1:                  4.8032e-03 
Misc 2:                  8.5786e-01 

----------------------------------User print-----------------------------------

Simulation number:                4 
Reaction step number:           109 
SrCO3 added:             1.0900e-03 
Log Sigma pi:           -8.2974e+00 
XAragonite:              8.6328e-01 
XStrontianite:           1.3672e-01 
XCa:                     9.0898e-01 
XSr:                     9.1023e-02 
Misc 1:                  4.8032e-03 
Misc 2:                  8.5786e-01 

----------------------------------User print-----------------------------------

Simulation number:                4 
Reaction step number:           110 
SrCO3 added:             1.1000e-03 
Log Sigma pi:           -8.2974e+00 
XAragonite:              8.5176e-01 
XStrontianite:           1.4824e-01 
XCa:                     9.0898e-01 
XSr:                     9.1023e-02 
Misc 1:                  4.8032e-03 
Misc 2:                  8.5786e-01 

----------------------------------User print-----------------------------------

Simulation number:                4 
Reaction step number:           111 
SrCO3 added:             1.1100e-03 
Log Sigma pi:           -8.2974e+00 
XAragonite:              8.4055e-01 
XStrontianite:           1.5945e-01 
XCa:                     9.0898e-01 
XSr:                     9.1023e-02 
Misc 1:                  4.8032e-03 
Misc 2:                  8.5786e-01 

----------------------------------User print-----------------------------------

Simulation number:                4 
Reaction step number:           112 
SrCO3 added:             1.1200e-03 
Log Sigma pi:           -8.2974e+00 
XAragonite:              8.2963e-01 
XStrontianite:           1.7037e-01 
XCa:                     9.0898e-01 
XSr:                     9.1023e-02 
Misc 1:                  4.8032e-03 
Misc 2:                  8.5786e-01 

----------------------------------User print-----------------------------------

Simulation number:                4 
Reaction step number:           113 
SrCO3 added:             1.1300e-03 
Log Sigma pi:           -8.2974e+00 
XAragonite:              8.1899e-01 
XStrontianite:           1.8101e-01 
XCa:                     9.0898e-01 
XSr:                     9.1023e-02 
Misc 1:                  4.8032e-03 
Misc 2:                  8.5786e-01 

----------------------------------User print-----------------------------------

Simulation number:                4 
Reaction step number:           114 
SrCO3 added:             1.1400e-03 
Log Sigma pi:           -8.2974e+00 
XAragonite:              8.0862e-01 
XStrontianite:           1.9138e-01 
XCa:                     9.0898e-01 
XSr:                     9.1023e-02 
Misc 1:                  4.8032e-03 
Misc 2:                  8.5786e-01 

----------------------------------User print-----------------------------------

Simulation number:                4 
Reaction step number:           115 
SrCO3 added:             1.1500e-03 
Log Sigma pi:           -8.2974e+00 
XAragonite:              7.9851e-01 
XStrontianite:           2.0149e-01 
XCa:                     9.0898e-01 
XSr:                     9.1023e-02 
Misc 1:                  4.8032e-03 
Misc 2:                  8.5786e-01 

----------------------------------User print-----------------------------------

Simulation number:                4 
Reaction step number:           116 
SrCO3 added:             1.1600e-03 
Log Sigma pi:           -8.2974e+00 
XAragonite:              7.8865e-01 
XStrontianite:           2.1135e-01 
XCa:                     9.0898e-01 
XSr:                     9.1023e-02 
Misc 1:                  4.8032e-03 
Misc 2:                  8.5786e-01 

----------------------------------User print-----------------------------------

Simulation number:                4 
Reaction step number:           117 
SrCO3 added:             1.1700e-03 
Log Sigma pi:           -8.2974e+00 
XAragonite:              7.7903e-01 
XStrontianite:           2.2097e-01 
XCa:                     9.0898e-01 
XSr:                     9.1023e-02 
Misc 1:                  4.8032e-03 
Misc 2:                  8.5786e-01 

----------------------------------User print-----------------------------------

Simulation number:                4 
Reaction step number:           118 
SrCO3 added:             1.1800e-03 
Log Sigma pi:           -8.2974e+00 
XAragonite:              7.6964e-01 
XStrontianite:           2.3036e-01 
XCa:                     9.0898e-01 
XSr:                     9.1023e-02 
Misc 1:                  4.8032e-03 
Misc 2:                  8.5786e-01 

----------------------------------User print-----------------------------------

Simulation number:                4 
Reaction step number:           119 
SrCO3 added:             1.1900e-03 
Log Sigma pi:           -8.2974e+00 
XAragonite:              7.6047e-01 
XStrontianite:           2.3953e-01 
XCa:                     9.0898e-01 
XSr:                     9.1023e-02 
Misc 1:                  4.8032e-03 
Misc 2:                  8.5786e-01 

----------------------------------User print-----------------------------------

Simulation number:                4 
Reaction step number:           120 
SrCO3 added:             1.2000e-03 
Log Sigma pi:           -8.2974e+00 
XAragonite:              7.5152e-01 
XStrontianite:           2.4848e-01 
XCa:                     9.0898e-01 
XSr:                     9.1023e-02 
Misc 1:                  4.8032e-03 
Misc 2:                  8.5786e-01 

----------------------------------User print-----------------------------------

Simulation number:                4 
Reaction step number:           121 
SrCO3 added:             1.2100e-03 
Log Sigma pi:           -8.2974e+00 
XAragonite:              7.4278e-01 
XStrontianite:           2.5722e-01 
XCa:                     9.0898e-01 
XSr:                     9.1023e-02 
Misc 1:                  4.8032e-03 
Misc 2:                  8.5786e-01 

----------------------------------User print-----------------------------------

Simulation number:                4 
Reaction step number:           122 
SrCO3 added:             1.2200e-03 
Log Sigma pi:           -8.2974e+00 
XAragonite:              7.3424e-01 
XStrontianite:           2.6576e-01 
XCa:                     9.0898e-01 
XSr:                     9.1023e-02 
Misc 1:                  4.8032e-03 
Misc 2:                  8.5786e-01 

----------------------------------User print-----------------------------------

Simulation number:                4 
Reaction step number:           123 
SrCO3 added:             1.2300e-03 
Log Sigma pi:           -8.2974e+00 
XAragonite:              7.2590e-01 
XStrontianite:           2.7410e-01 
XCa:                     9.0898e-01 
XSr:                     9.1023e-02 
Misc 1:                  4.8032e-03 
Misc 2:                  8.5786e-01 

----------------------------------User print-----------------------------------

Simulation number:                4 
Reaction step number:           124 
SrCO3 added:             1.2400e-03 
Log Sigma pi:           -8.2974e+00 
XAragonite:              7.1774e-01 
XStrontianite:           2.8226e-01 
XCa:                     9.0898e-01 
XSr:                     9.1023e-02 
Misc 1:                  4.8032e-03 
Misc 2:                  8.5786e-01 

----------------------------------User print-----------------------------------

Simulation number:                4 
Reaction step number:           125 
SrCO3 added:             1.2500e-03 
Log Sigma pi:           -8.2974e+00 
XAragonite:              7.0976e-01 
XStrontianite:           2.9024e-01 
XCa:                     9.0898e-01 
XSr:                     9.1023e-02 
Misc 1:                  4.8032e-03 
Misc 2:                  8.5786e-01 

----------------------------------User print-----------------------------------

Simulation number:                4 
Reaction step number:           126 
SrCO3 added:             1.2600e-03 
Log Sigma pi:           -8.2974e+00 
XAragonite:              7.0196e-01 
XStrontianite:           2.9804e-01 
XCa:                     9.0898e-01 
XSr:                     9.1023e-02 
Misc 1:                  4.8032e-03 
Misc 2:                  8.5786e-01 

----------------------------------User print-----------------------------------

Simulation number:                4 
Reaction step number:           127 
SrCO3 added:             1.2700e-03 
Log Sigma pi:           -8.2974e+00 
XAragonite:              6.9433e-01 
XStrontianite:           3.0567e-01 
XCa:                     9.0898e-01 
XSr:                     9.1023e-02 
Misc 1:                  4.8032e-03 
Misc 2:                  8.5786e-01 

----------------------------------User print-----------------------------------

Simulation number:                4 
Reaction step number:           128 
SrCO3 added:             1.2800e-03 
Log Sigma pi:           -8.2974e+00 
XAragonite:              6.8686e-01 
XStrontianite:           3.1314e-01 
XCa:                     9.0898e-01 
XSr:                     9.1023e-02 
Misc 1:                  4.8032e-03 
Misc 2:                  8.5786e-01 

----------------------------------User print-----------------------------------

Simulation number:                4 
Reaction step number:           129 
SrCO3 added:             1.2900e-03 
Log Sigma pi:           -8.2974e+00 
XAragonite:              6.7955e-01 
XStrontianite:           3.2045e-01 
XCa:                     9.0898e-01 
XSr:                     9.1023e-02 
Misc 1:                  4.8032e-03 
Misc 2:                  8.5786e-01 

----------------------------------User print-----------------------------------

Simulation number:                4 
Reaction step number:           130 
SrCO3 added:             1.3000e-03 
Log Sigma pi:           -8.2974e+00 
XAragonite:              6.7239e-01 
XStrontianite:           3.2761e-01 
XCa:                     9.0898e-01 
XSr:                     9.1023e-02 
Misc 1:                  4.8032e-03 
Misc 2:                  8.5786e-01 

----------------------------------User print-----------------------------------

Simulation number:                4 
Reaction step number:           131 
SrCO3 added:             1.3100e-03 
Log Sigma pi:           -8.2974e+00 
XAragonite:              6.6539e-01 
XStrontianite:           3.3461e-01 
XCa:                     9.0898e-01 
XSr:                     9.1023e-02 
Misc 1:                  4.8032e-03 
Misc 2:                  8.5786e-01 

----------------------------------User print-----------------------------------

Simulation number:                4 
Reaction step number:           132 
SrCO3 added:             1.3200e-03 
Log Sigma pi:           -8.2974e+00 
XAragonite:              6.5853e-01 
XStrontianite:           3.4147e-01 
XCa:                     9.0898e-01 
XSr:                     9.1023e-02 
Misc 1:                  4.8032e-03 
Misc 2:                  8.5786e-01 

----------------------------------User print-----------------------------------

Simulation number:                4 
Reaction step number:           133 
SrCO3 added:             1.3300e-03 
Log Sigma pi:           -8.2974e+00 
XAragonite:              6.5180e-01 
XStrontianite:           3.4820e-01 
XCa:                     9.0898e-01 
XSr:                     9.1023e-02 
Misc 1:                  4.8032e-03 
Misc 2:                  8.5786e-01 

----------------------------------User print-----------------------------------

Simulation number:                4 
Reaction step number:           134 
SrCO3 added:             1.3400e-03 
Log Sigma pi:           -8.2974e+00 
XAragonite:              6.4522e-01 
XStrontianite:           3.5478e-01 
XCa:                     9.0898e-01 
XSr:                     9.1023e-02 
Misc 1:                  4.8032e-03 
Misc 2:                  8.5786e-01 

----------------------------------User print-----------------------------------

Simulation number:                4 
Reaction step number:           135 
SrCO3 added:             1.3500e-03 
Log Sigma pi:           -8.2974e+00 
XAragonite:              6.3877e-01 
XStrontianite:           3.6123e-01 
XCa:                     9.0898e-01 
XSr:                     9.1023e-02 
Misc 1:                  4.8032e-03 
Misc 2:                  8.5786e-01 

----------------------------------User print-----------------------------------

Simulation number:                4 
Reaction step number:           136 
SrCO3 added:             1.3600e-03 
Log Sigma pi:           -8.2974e+00 
XAragonite:              6.3244e-01 
XStrontianite:           3.6756e-01 
XCa:                     9.0898e-01 
XSr:                     9.1023e-02 
Misc 1:                  4.8032e-03 
Misc 2:                  8.5786e-01 

----------------------------------User print-----------------------------------

Simulation number:                4 
Reaction step number:           137 
SrCO3 added:             1.3700e-03 
Log Sigma pi:           -8.2974e+00 
XAragonite:              6.2624e-01 
XStrontianite:           3.7376e-01 
XCa:                     9.0898e-01 
XSr:                     9.1023e-02 
Misc 1:                  4.8032e-03 
Misc 2:                  8.5786e-01 

----------------------------------User print-----------------------------------

Simulation number:                4 
Reaction step number:           138 
SrCO3 added:             1.3800e-03 
Log Sigma pi:           -8.2974e+00 
XAragonite:              6.2016e-01 
XStrontianite:           3.7984e-01 
XCa:                     9.0898e-01 
XSr:                     9.1023e-02 
Misc 1:                  4.8032e-03 
Misc 2:                  8.5786e-01 

----------------------------------User print-----------------------------------

Simulation number:                4 
Reaction step number:           139 
SrCO3 added:             1.3900e-03 
Log Sigma pi:           -8.2974e+00 
XAragonite:              6.1419e-01 
XStrontianite:           3.8581e-01 
XCa:                     9.0898e-01 
XSr:                     9.1023e-02 
Misc 1:                  4.8032e-03 
Misc 2:                  8.5786e-01 

----------------------------------User print-----------------------------------

Simulation number:                4 
Reaction step number:           140 
SrCO3 added:             1.4000e-03 
Log Sigma pi:           -8.2974e+00 
XAragonite:              6.0834e-01 
XStrontianite:           3.9166e-01 
XCa:                     9.0898e-01 
XSr:                     9.1023e-02 
Misc 1:                  4.8032e-03 
Misc 2:                  8.5786e-01 

----------------------------------User print-----------------------------------

Simulation number:                4 
Reaction step number:           141 
SrCO3 added:             1.4100e-03 
Log Sigma pi:           -8.2974e+00 
XAragonite:              6.0260e-01 
XStrontianite:           3.9740e-01 
XCa:                     9.0898e-01 
XSr:                     9.1023e-02 
Misc 1:                  4.8032e-03 
Misc 2:                  8.5786e-01 

----------------------------------User print-----------------------------------

Simulation number:                4 
Reaction step number:           142 
SrCO3 added:             1.4200e-03 
Log Sigma pi:           -8.2974e+00 
XAragonite:              5.9697e-01 
XStrontianite:           4.0303e-01 
XCa:                     9.0898e-01 
XSr:                     9.1023e-02 
Misc 1:                  4.8032e-03 
Misc 2:                  8.5786e-01 

----------------------------------User print-----------------------------------

Simulation number:                4 
Reaction step number:           143 
SrCO3 added:             1.4300e-03 
Log Sigma pi:           -8.2974e+00 
XAragonite:              5.9144e-01 
XStrontianite:           4.0856e-01 
XCa:                     9.0898e-01 
XSr:                     9.1023e-02 
Misc 1:                  4.8032e-03 
Misc 2:                  8.5786e-01 

----------------------------------User print-----------------------------------

Simulation number:                4 
Reaction step number:           144 
SrCO3 added:             1.4400e-03 
Log Sigma pi:           -8.2974e+00 
XAragonite:              5.8601e-01 
XStrontianite:           4.1399e-01 
XCa:                     9.0898e-01 
XSr:                     9.1023e-02 
Misc 1:                  4.8032e-03 
Misc 2:                  8.5786e-01 

----------------------------------User print-----------------------------------

Simulation number:                4 
Reaction step number:           145 
SrCO3 added:             1.4500e-03 
Log Sigma pi:           -8.2974e+00 
XAragonite:              5.8068e-01 
XStrontianite:           4.1932e-01 
XCa:                     9.0898e-01 
XSr:                     9.1023e-02 
Misc 1:                  4.8032e-03 
Misc 2:                  8.5786e-01 

----------------------------------User print-----------------------------------

Simulation number:                4 
Reaction step number:           146 
SrCO3 added:             1.4600e-03 
Log Sigma pi:           -8.2974e+00 
XAragonite:              5.7545e-01 
XStrontianite:           4.2455e-01 
XCa:                     9.0898e-01 
XSr:                     9.1023e-02 
Misc 1:                  4.8032e-03 
Misc 2:                  8.5786e-01 

----------------------------------User print-----------------------------------

Simulation number:                4 
[...]

----------------------------------User print-----------------------------------

Simulation number:                6 
Reaction step number:            57 
SrCO3 added:             5.7000e+00 
Log Sigma pi:           -9.2394e+00 
XAragonite:              1.7807e-03 
XStrontianite:           9.9822e-01 
XCa:                     7.1047e-02 
XSr:                     9.2895e-01 
Misc 1:                  4.8032e-03 
Misc 2:                  8.5786e-01 

----------------------------------User print-----------------------------------

Simulation number:                6 
Reaction step number:            58 
SrCO3 added:             5.8000e+00 
Log Sigma pi:           -9.2399e+00 
XAragonite:              1.7510e-03 
XStrontianite:           9.9825e-01 
XCa:                     6.9936e-02 
XSr:                     9.3006e-01 
Misc 1:                  4.8032e-03 
Misc 2:                  8.5786e-01 

----------------------------------User print-----------------------------------

Simulation number:                6 
Reaction step number:            59 
SrCO3 added:             5.9000e+00 
Log Sigma pi:           -9.2404e+00 
XAragonite:              1.7222e-03 
XStrontianite:           9.9828e-01 
XCa:                     6.8859e-02 
XSr:                     9.3114e-01 
Misc 1:                  4.8032e-03 
Misc 2:                  8.5786e-01 

----------------------------------User print-----------------------------------

Simulation number:                6 
Reaction step number:            60 
SrCO3 added:                      6 
Log Sigma pi:           -9.2409e+00 
XAragonite:              1.6945e-03 
XStrontianite:           9.9831e-01 
XCa:                     6.7815e-02 
XSr:                     9.3219e-01 
Misc 1:                  4.8032e-03 
Misc 2:                  8.5786e-01 

----------------------------------User print-----------------------------------

Simulation number:                6 
Reaction step number:            61 
SrCO3 added:             6.1000e+00 
Log Sigma pi:           -9.2414e+00 
XAragonite:              1.6675e-03 
XStrontianite:           9.9833e-01 
XCa:                     6.6801e-02 
XSr:                     9.3320e-01 
Misc 1:                  4.8032e-03 
Misc 2:                  8.5786e-01 

----------------------------------User print-----------------------------------

Simulation number:                6 
Reaction step number:            62 
SrCO3 added:             6.2000e+00 
Log Sigma pi:           -9.2418e+00 
XAragonite:              1.6415e-03 
XStrontianite:           9.9836e-01 
XCa:                     6.5818e-02 
XSr:                     9.3418e-01 
Misc 1:                  4.8032e-03 
Misc 2:                  8.5786e-01 

----------------------------------User print-----------------------------------

Simulation number:                6 
Reaction step number:            63 
SrCO3 added:             6.3000e+00 
Log Sigma pi:           -9.2422e+00 
XAragonite:              1.6162e-03 
XStrontianite:           9.9838e-01 
XCa:                     6.4864e-02 
XSr:                     9.3514e-01 
Misc 1:                  4.8032e-03 
Misc 2:                  8.5786e-01 

----------------------------------User print-----------------------------------

Simulation number:                6 
Reaction step number:            64 
SrCO3 added:             6.4000e+00 
Log Sigma pi:           -9.2427e+00 
XAragonite:              1.5917e-03 
XStrontianite:           9.9841e-01 
XCa:                     6.3936e-02 
XSr:                     9.3606e-01 
Misc 1:                  4.8032e-03 
Misc 2:                  8.5786e-01 

----------------------------------User print-----------------------------------

Simulation number:                6 
Reaction step number:            65 
SrCO3 added:             6.5000e+00 
Log Sigma pi:           -9.2431e+00 
XAragonite:              1.5680e-03 
XStrontianite:           9.9843e-01 
XCa:                     6.3035e-02 
XSr:                     9.3697e-01 
Misc 1:                  4.8032e-03 
Misc 2:                  8.5786e-01 

----------------------------------User print-----------------------------------

Simulation number:                6 
Reaction step number:            66 
SrCO3 added:             6.6000e+00 
Log Sigma pi:           -9.2435e+00 
XAragonite:              1.5449e-03 
XStrontianite:           9.9846e-01 
XCa:                     6.2159e-02 
XSr:                     9.3784e-01 
Misc 1:                  4.8032e-03 
Misc 2:                  8.5786e-01 

----------------------------------User print-----------------------------------

Simulation number:                6 
Reaction step number:            67 
SrCO3 added:             6.7000e+00 
Log Sigma pi:           -9.2439e+00 
XAragonite:              1.5225e-03 
XStrontianite:           9.9848e-01 
XCa:                     6.1307e-02 
XSr:                     9.3869e-01 
Misc 1:                  4.8032e-03 
Misc 2:                  8.5786e-01 

----------------------------------User print-----------------------------------

Simulation number:                6 
Reaction step number:            68 
SrCO3 added:             6.8000e+00 
Log Sigma pi:           -9.2442e+00 
XAragonite:              1.5008e-03 
XStrontianite:           9.9850e-01 
XCa:                     6.0478e-02 
XSr:                     9.3952e-01 
Misc 1:                  4.8032e-03 
Misc 2:                  8.5786e-01 

----------------------------------User print-----------------------------------

Simulation number:                6 
Reaction step number:            69 
SrCO3 added:             6.9000e+00 
Log Sigma pi:           -9.2446e+00 
XAragonite:              1.4796e-03 
XStrontianite:           9.9852e-01 
XCa:                     5.9671e-02 
XSr:                     9.4033e-01 
Misc 1:                  4.8032e-03 
Misc 2:                  8.5786e-01 

----------------------------------User print-----------------------------------

Simulation number:                6 
Reaction step number:            70 
SrCO3 added:                      7 
Log Sigma pi:           -9.2450e+00 
XAragonite:              1.4591e-03 
XStrontianite:           9.9854e-01 
XCa:                     5.8885e-02 
XSr:                     9.4111e-01 
Misc 1:                  4.8032e-03 
Misc 2:                  8.5786e-01 

----------------------------------User print-----------------------------------

Simulation number:                6 
Reaction step number:            71 
SrCO3 added:             7.1000e+00 
Log Sigma pi:           -9.2453e+00 
XAragonite:              1.4391e-03 
XStrontianite:           9.9856e-01 
XCa:                     5.8120e-02 
XSr:                     9.4188e-01 
Misc 1:                  4.8032e-03 
Misc 2:                  8.5786e-01 

----------------------------------User print-----------------------------------

Simulation number:                6 
Reaction step number:            72 
SrCO3 added:             7.2000e+00 
Log Sigma pi:           -9.2457e+00 
XAragonite:              1.4196e-03 
XStrontianite:           9.9858e-01 
XCa:                     5.7375e-02 
XSr:                     9.4263e-01 
Misc 1:                  4.8032e-03 
Misc 2:                  8.5786e-01 

----------------------------------User print-----------------------------------

Simulation number:                6 
Reaction step number:            73 
SrCO3 added:             7.3000e+00 
Log Sigma pi:           -9.2460e+00 
XAragonite:              1.4007e-03 
XStrontianite:           9.9860e-01 
XCa:                     5.6648e-02 
XSr:                     9.4335e-01 
Misc 1:                  4.8032e-03 
Misc 2:                  8.5786e-01 

----------------------------------User print-----------------------------------

Simulation number:                6 
Reaction step number:            74 
SrCO3 added:             7.4000e+00 
Log Sigma pi:           -9.2463e+00 
XAragonite:              1.3823e-03 
XStrontianite:           9.9862e-01 
XCa:                     5.5939e-02 
XSr:                     9.4406e-01 
Misc 1:                  4.8032e-03 
Misc 2:                  8.5786e-01 

----------------------------------User print-----------------------------------

Simulation number:                6 
Reaction step number:            75 
SrCO3 added:             7.5000e+00 
Log Sigma pi:           -9.2466e+00 
XAragonite:              1.3643e-03 
XStrontianite:           9.9864e-01 
XCa:                     5.5249e-02 
XSr:                     9.4475e-01 
Misc 1:                  4.8032e-03 
Misc 2:                  8.5786e-01 

----------------------------------User print-----------------------------------

Simulation number:                6 
Reaction step number:            76 
SrCO3 added:             7.6000e+00 
Log Sigma pi:           -9.2469e+00 
XAragonite:              1.3468e-03 
XStrontianite:           9.9865e-01 
XCa:                     5.4574e-02 
XSr:                     9.4543e-01 
Misc 1:                  4.8032e-03 
Misc 2:                  8.5786e-01 

----------------------------------User print-----------------------------------

Simulation number:                6 
Reaction step number:            77 
SrCO3 added:             7.7000e+00 
Log Sigma pi:           -9.2472e+00 
XAragonite:              1.3298e-03 
XStrontianite:           9.9867e-01 
XCa:                     5.3917e-02 
XSr:                     9.4608e-01 
Misc 1:                  4.8032e-03 
Misc 2:                  8.5786e-01 

----------------------------------User print-----------------------------------

Simulation number:                6 
Reaction step number:            78 
SrCO3 added:             7.8000e+00 
Log Sigma pi:           -9.2475e+00 
XAragonite:              1.3132e-03 
XStrontianite:           9.9869e-01 
XCa:                     5.3275e-02 
XSr:                     9.4673e-01 
Misc 1:                  4.8032e-03 
Misc 2:                  8.5786e-01 

----------------------------------User print-----------------------------------

Simulation number:                6 
Reaction step number:            79 
SrCO3 added:             7.9000e+00 
Log Sigma pi:           -9.2478e+00 
XAragonite:              1.2969e-03 
XStrontianite:           9.9870e-01 
XCa:                     5.2648e-02 
XSr:                     9.4735e-01 
Misc 1:                  4.8032e-03 
Misc 2:                  8.5786e-01 

----------------------------------User print-----------------------------------

Simulation number:                6 
Reaction step number:            80 
SrCO3 added:                      8 
Log Sigma pi:           -9.2481e+00 
XAragonite:              1.2811e-03 
XStrontianite:           9.9872e-01 
XCa:                     5.2035e-02 
XSr:                     9.4796e-01 
Misc 1:                  4.8032e-03 
Misc 2:                  8.5786e-01 

----------------------------------User print-----------------------------------

Simulation number:                6 
Reaction step number:            81 
SrCO3 added:             8.1000e+00 
Log Sigma pi:           -9.2484e+00 
XAragonite:              1.2657e-03 
XStrontianite:           9.9873e-01 
XCa:                     5.1437e-02 
XSr:                     9.4856e-01 
Misc 1:                  4.8032e-03 
Misc 2:                  8.5786e-01 

----------------------------------User print-----------------------------------

Simulation number:                6 
Reaction step number:            82 
SrCO3 added:             8.2000e+00 
Log Sigma pi:           -9.2486e+00 
XAragonite:              1.2506e-03 
XStrontianite:           9.9875e-01 
XCa:                     5.0852e-02 
XSr:                     9.4915e-01 
Misc 1:                  4.8032e-03 
Misc 2:                  8.5786e-01 

----------------------------------User print-----------------------------------

Simulation number:                6 
Reaction step number:            83 
SrCO3 added:             8.3000e+00 
Log Sigma pi:           -9.2489e+00 
XAragonite:              1.2359e-03 
XStrontianite:           9.9876e-01 
XCa:                     5.0281e-02 
XSr:                     9.4972e-01 
Misc 1:                  4.8032e-03 
Misc 2:                  8.5786e-01 

----------------------------------User print-----------------------------------

Simulation number:                6 
Reaction step number:            84 
SrCO3 added:             8.4000e+00 
Log Sigma pi:           -9.2491e+00 
XAragonite:              1.2216e-03 
XStrontianite:           9.9878e-01 
XCa:                     4.9722e-02 
XSr:                     9.5028e-01 
Misc 1:                  4.8032e-03 
Misc 2:                  8.5786e-01 

----------------------------------User print-----------------------------------

Simulation number:                6 
Reaction step number:            85 
SrCO3 added:             8.5000e+00 
Log Sigma pi:           -9.2494e+00 
XAragonite:              1.2075e-03 
XStrontianite:           9.9879e-01 
XCa:                     4.9175e-02 
XSr:                     9.5082e-01 
Misc 1:                  4.8032e-03 
Misc 2:                  8.5786e-01 

----------------------------------User print-----------------------------------

Simulation number:                6 
Reaction step number:            86 
SrCO3 added:             8.6000e+00 
Log Sigma pi:           -9.2496e+00 
XAragonite:              1.1938e-03 
XStrontianite:           9.9881e-01 
XCa:                     4.8641e-02 
XSr:                     9.5136e-01 
Misc 1:                  4.8032e-03 
Misc 2:                  8.5786e-01 

----------------------------------User print-----------------------------------

Simulation number:                6 
Reaction step number:            87 
SrCO3 added:             8.7000e+00 
Log Sigma pi:           -9.2499e+00 
XAragonite:              1.1804e-03 
XStrontianite:           9.9882e-01 
XCa:                     4.8117e-02 
XSr:                     9.5188e-01 
Misc 1:                  4.8032e-03 
Misc 2:                  8.5786e-01 

----------------------------------User print-----------------------------------

Simulation number:                6 
Reaction step number:            88 
SrCO3 added:             8.8000e+00 
Log Sigma pi:           -9.2501e+00 
XAragonite:              1.1673e-03 
XStrontianite:           9.9883e-01 
XCa:                     4.7605e-02 
XSr:                     9.5239e-01 
Misc 1:                  4.8032e-03 
Misc 2:                  8.5786e-01 

----------------------------------User print-----------------------------------

Simulation number:                6 
Reaction step number:            89 
SrCO3 added:             8.9000e+00 
Log Sigma pi:           -9.2503e+00 
XAragonite:              1.1544e-03 
XStrontianite:           9.9885e-01 
XCa:                     4.7104e-02 
XSr:                     9.5290e-01 
Misc 1:                  4.8032e-03 
Misc 2:                  8.5786e-01 

----------------------------------User print-----------------------------------

Simulation number:                6 
Reaction step number:            90 
SrCO3 added:                      9 
Log Sigma pi:           -9.2505e+00 
XAragonite:              1.1419e-03 
XStrontianite:           9.9886e-01 
XCa:                     4.6614e-02 
XSr:                     9.5339e-01 
Misc 1:                  4.8032e-03 
Misc 2:                  8.5786e-01 

----------------------------------User print-----------------------------------

Simulation number:                6 
Reaction step number:            91 
SrCO3 added:             9.1000e+00 
Log Sigma pi:           -9.2507e+00 
XAragonite:              1.1296e-03 
XStrontianite:           9.9887e-01 
XCa:                     4.6133e-02 
XSr:                     9.5387e-01 
Misc 1:                  4.8032e-03 
Misc 2:                  8.5786e-01 

----------------------------------User print-----------------------------------

Simulation number:                6 
Reaction step number:            92 
SrCO3 added:             9.2000e+00 
Log Sigma pi:           -9.2510e+00 
XAragonite:              1.1176e-03 
XStrontianite:           9.9888e-01 
XCa:                     4.5662e-02 
XSr:                     9.5434e-01 
Misc 1:                  4.8032e-03 
Misc 2:                  8.5786e-01 

----------------------------------User print-----------------------------------

Simulation number:                6 
Reaction step number:            93 
SrCO3 added:             9.3000e+00 
Log Sigma pi:           -9.2512e+00 
XAragonite:              1.1059e-03 
XStrontianite:           9.9889e-01 
XCa:                     4.5201e-02 
XSr:                     9.5480e-01 
Misc 1:                  4.8032e-03 
Misc 2:                  8.5786e-01 

----------------------------------User print-----------------------------------

Simulation number:                6 
Reaction step number:            94 
SrCO3 added:             9.4000e+00 
Log Sigma pi:           -9.2514e+00 
XAragonite:              1.0943e-03 
XStrontianite:           9.9891e-01 
XCa:                     4.4749e-02 
XSr:                     9.5525e-01 
Misc 1:                  4.8032e-03 
Misc 2:                  8.5786e-01 

----------------------------------User print-----------------------------------

Simulation number:                6 
Reaction step number:            95 
SrCO3 added:             9.5000e+00 
Log Sigma pi:           -9.2516e+00 
XAragonite:              1.0831e-03 
XStrontianite:           9.9892e-01 
XCa:                     4.4306e-02 
XSr:                     9.5569e-01 
Misc 1:                  4.8032e-03 
Misc 2:                  8.5786e-01 

----------------------------------User print-----------------------------------

Simulation number:                6 
Reaction step number:            96 
SrCO3 added:             9.6000e+00 
Log Sigma pi:           -9.2518e+00 
XAragonite:              1.0720e-03 
XStrontianite:           9.9893e-01 
XCa:                     4.3871e-02 
XSr:                     9.5613e-01 
Misc 1:                  4.8032e-03 
Misc 2:                  8.5786e-01 

----------------------------------User print-----------------------------------

Simulation number:                6 
Reaction step number:            97 
SrCO3 added:             9.7000e+00 
Log Sigma pi:           -9.2519e+00 
XAragonite:              1.0612e-03 
XStrontianite:           9.9894e-01 
XCa:                     4.3445e-02 
XSr:                     9.5655e-01 
Misc 1:                  4.8032e-03 
Misc 2:                  8.5786e-01 

----------------------------------User print-----------------------------------

Simulation number:                6 
Reaction step number:            98 
SrCO3 added:             9.8000e+00 
Log Sigma pi:           -9.2521e+00 
XAragonite:              1.0506e-03 
XStrontianite:           9.9895e-01 
XCa:                     4.3027e-02 
XSr:                     9.5697e-01 
Misc 1:                  4.8032e-03 
Misc 2:                  8.5786e-01 

----------------------------------User print-----------------------------------

Simulation number:                6 
Reaction step number:            99 
SrCO3 added:             9.9000e+00 
Log Sigma pi:           -9.2523e+00 
XAragonite:              1.0402e-03 
XStrontianite:           9.9896e-01 
XCa:                     4.2618e-02 
XSr:                     9.5738e-01 
Misc 1:                  4.8032e-03 
Misc 2:                  8.5786e-01 

----------------------------------User print-----------------------------------

Simulation number:                6 
Reaction step number:           100 
SrCO3 added:                     10 
Log Sigma pi:           -9.2525e+00 
XAragonite:              1.0300e-03 
XStrontianite:           9.9897e-01 
XCa:                     4.2215e-02 
XSr:                     9.5778e-01 
Misc 1:                  4.8032e-03 
Misc 2:                  8.5786e-01 

-------------------------------
End of Run after 0.213 Seconds.
-------------------------------

