   Input file: ../examples/ex20b
  Output file: ex20b.out
Database file: ../database/iso.dat

------------------
Reading data base.
------------------

	SOLUTION_MASTER_SPECIES
	SOLUTION_SPECIES
	PHASES
	EXCHANGE_MASTER_SPECIES
	EXCHANGE_SPECIES
	SURFACE_MASTER_SPECIES
	SURFACE_SPECIES
	SOLUTION_MASTER_SPECIES
	ISOTOPES
	ISOTOPE_RATIOS
	ISOTOPE_ALPHAS
	NAMED_EXPRESSIONS
	CALCULATE_VALUES
	CALCULATE_VALUES
	SOLUTION_SPECIES
	PHASES
------------------------------------
Reading input data for simulation 1.
------------------------------------

	TITLE Example 20B.--Isotope evolution.
	PRINT
		censor_species        1e-006
	KNOBS
		diagonal_scale
		step_size 10
		pe_step_size   5
	SOLID_SOLUTION 1 With [14C]
	Calcite 
		component	Calcite                 0
		component	CaCO2[18O](s)           0
		component	CaCO[18O]2(s)           0
		component	CaC[18O]3(s)            0
		component 	Ca[13C]O3(s)            0
		component	Ca[13C]O2[18O](s)       0
		component	Ca[13C]O[18O]2(s)       0
		component	Ca[13C][18O]3(s)        0
		component 	Ca[14C]O3(s)            0
		component	Ca[14C]O2[18O](s)       0
		component	Ca[14C]O[18O]2(s)       0
		component	Ca[14C][18O]3(s)        0
	END
-----
TITLE
-----

 Example 20B.--Isotope evolution.

------------------
End of simulation.
------------------

------------------------------------
Reading input data for simulation 2.
------------------------------------

	REACTION 1
		Calcite               9.8283e-001 
		Ca[13C]O3(s)          1.1011e-002 
		CaCO2[18O](s)         6.0825e-003 
		Ca[13C]O2[18O](s)     6.8147e-005 
		CaCO[18O]2(s)         1.2548e-005 
		Ca[13C]O[18O]2(s)     1.4058e-007 
		CaC[18O]3(s)          8.6284e-009 
		Ca[13C][18O]3(s)      9.6671e-011 
		0.0005 mole
	END
------------------
End of simulation.
------------------

------------------------------------
Reading input data for simulation 3.
------------------------------------

	USER_PRINT
	10 PRINT "Calcite added: ", GET(0) * RXN
	USER_GRAPH 1 Example 20
	        -headings Open--Dissolved Open--Calcite
	        -chart_title "Oxygen-18"
	        -axis_titles "Marine calcite reacted, in moles" "Permil"
	        -axis_scale x_axis 0 0.05 a a 
	        -axis_scale y_axis -10 30 a a
	   -start
	10 PUT(GET(0) + 1, 0)   
	20 PLOT_XY RXN*GET(0),ISO("R(18O)"), color=Red, line_w=2, symbol=None
	30 PLOT_XY RXN*GET(0),ISO("R(18O)_Calcite"), color=Green, line_w=2, symbol=None
	   -end
	END
------------------
End of simulation.
------------------

------------------------------------
Reading input data for simulation 4.
------------------------------------

	USER_GRAPH 2 Example 20
	        -headings Open--Dissolved Open-Calcite
	        -chart_title "Carbon-13"
	        -axis_titles "Marine calcite reacted, in moles" "Permil"
	        -axis_scale x_axis 0 0.05 a a 
	        -axis_scale y_axis -25 5.0 a a
	        -plot_tsv  ex20-c13.tsv
	   -start
	10 PLOT_XY RXN*GET(0),ISO("R(13C)"), color=Red, line_w=2, symbol=None
	20 PLOT_XY RXN*GET(0),ISO("R(13C)_Calcite"), color=Green, line_w=2, symbol=None 
	   -end
	END
------------------
End of simulation.
------------------

------------------------------------
Reading input data for simulation 5.
------------------------------------

	USER_GRAPH 3 Example 20
	        -headings Open--Dissolved Open--Calcite
	        -chart_title "Carbon-14"
	        -axis_titles "Marine calcite reacted, in moles" "Percent modern carbon"
	        -axis_scale x_axis 0 0.05 a a 
	        -axis_scale y_axis 0 100 a a
	        -plot_tsv  ex20-c14.tsv
	   -start
	10 PLOT_XY RXN*GET(0),ISO("R(14C)"), color=Red, line_w=2, symbol=None
	20 PLOT_XY RXN*GET(0),ISO("R(14C)_Calcite"), color=Green, line_w=2, symbol=None 
	   -end                                                                            
	END
------------------
End of simulation.
------------------

------------------------------------
Reading input data for simulation 6.
------------------------------------

	SOLUTION 1
		pH	5  	charge
		pe      10
		C	2	CO2(g)  -1.0	
		[13C]	-25	# permil
		[14C]	100	# pmc
		[18O]	-5	# permil
	SELECTED_OUTPUT
		reset false
		file ex20_open
	USER_PUNCH
	start
	10 FOR i = 1 to 100
	20 PUNCH EOL$ + "USE solution 1"      
	30 PUNCH EOL$ + "USE solid_solution 1"
	40 PUNCH EOL$ + "USE reaction 1"      
	50 PUNCH EOL$ + "SAVE solution 1"     
	60 PUNCH EOL$ + "END"                 
	70 NEXT i
	end
	END
-------------------------------------------
Beginning of initial solution calculations.
-------------------------------------------

Initial solution 1.	

WARNING: USER_PUNCH: Headings count does not match number of calls to PUNCH.

----------------------------------User print-----------------------------------

Calcite added:             0 

-----------------------------------Isotopes------------------------------------

   Isotope	    Molality	       Moles	       Ratio	       Units

         C	 3.40658e-03	 3.40658e-03
     [13C]	 3.71341e-05	 3.71341e-05	-2.50000e+01	      permil
     [14C]	 4.04942e-15	 4.04942e-15	 1.00000e+02	         pmc

         O	 5.54026e+01	 5.54026e+01
     [18O]	 1.10538e-01	 1.10538e-01	-5.00000e+00	      permil

-----------------------------Solution composition------------------------------

	Elements           Molality       Moles

	C                 3.444e-03   3.444e-03  Equilibrium with CO2(g)

----------------------------Description of solution----------------------------

                                       pH  =   4.410      Charge balance
                                       pe  =  10.000    
                        Activity of water  =   1.000
                 Ionic strength (mol/kgw)  =   3.919e-05
                       Mass of water (kg)  =   1.000e+00
                 Total alkalinity (eq/kg)  =   1.366e-18
                       Total CO2 (mol/kg)  =   3.444e-03
                         Temperature (°C)  =  25.00
                  Electrical balance (eq)  =  -1.366e-18
 Percent error, 100*(Cat-|An|)/(Cat+|An|)  =  -0.00
                               Iterations  =   7
                                  Total H  = 1.110126e+02
                                  Total O  = 5.540264e+01

----------------------------Distribution of species----------------------------

                                               Log       Log       Log    mole V
   Species          Molality    Activity  Molality  Activity     Gamma   cm³/mol

   H3O+            3.919e-05   3.891e-05    -4.407    -4.410    -0.003      0.00
   OH-             2.592e-10   2.573e-10    -9.586    -9.590    -0.003     (0)  
   H2O             5.551e+01   9.999e-01     1.744    -0.000     0.000     18.07
C(-4)         0.000e+00
   CH4             0.000e+00   0.000e+00   -93.357   -93.357     0.000     (0)  
C(4)          3.444e-03
   CO2             3.405e-03   3.405e-03    -2.468    -2.468     0.000     (0)  
   HCO3-           3.919e-05   3.890e-05    -4.407    -4.410    -0.003     (0)  
H(0)          2.144e-32
   H2              1.072e-32   1.072e-32   -31.970   -31.970     0.000     (0)  
O(0)          7.256e-29
   O2              3.628e-29   3.628e-29   -28.440   -28.440     0.000     (0)  

------------------------------Saturation indices-------------------------------

  Phase               SI** log IAP   log K(298 K,   1 atm)

  CH4(g)          -90.50    -93.36   -2.86  CH4
  CO2(g)           -1.00     -2.47   -1.47  CO2
  H2(g)           -28.82    -31.97   -3.15  H2
  H2O(g)           -1.51     -0.00    1.51  H2O
  O2(g)           -25.55    -28.44   -2.89  O2

**For a gas, SI = log10(fugacity). Fugacity = pressure * phi / 1 atm.
  For ideal gases, phi = 1.

------------------
End of simulation.
------------------

------------------------------------
Reading input data for simulation 7.
------------------------------------

	PRINT
		selected_output false
	END
------------------
End of simulation.
------------------

------------------------------------
Reading input data for simulation 8.
------------------------------------


	Reading data from ex20_open ...
	USE solution 1	
	USE solid_solution 1	
	USE reaction 1	
	SAVE solution 1	        
	END	
-----------------------------------------
Beginning of batch-reaction calculations.
-----------------------------------------

Reaction step 1.

Using solution 1.	
Using solid solution assemblage 1.	With [14C]
Using reaction 1.	

Reaction 1.	

	  5.000e-04 moles of the following reaction have been added:

	                 Relative
	Reactant            moles

	CaCO2[18O](s)        0.00608
	CaCO[18O]2(s)        0.00001
	CaC[18O]3(s)         0.00000
	Ca[13C]O2[18O](s)      0.00007
	Ca[13C]O3(s)         0.01101
	Ca[13C]O[18O]2(s)      0.00000
	Ca[13C][18O]3(s)      0.00000
	Calcite              0.98283

	                 Relative
	Element             moles
	C                    0.98893
	Ca                   1.00000
	O                    2.99384
	[13C]                0.01108
	[18O]                0.00618

----------------------------------User print-----------------------------------

Calcite added:             0 

--------------------------------Solid solutions--------------------------------


Solid solution                Component        Moles  Delta moles   Mole fract

Calcite                                     0.00e+00
                                Calcite     0.00e+00     0.00e+00     0.00e+00
                          CaCO2[18O](s)     0.00e+00     0.00e+00     0.00e+00
                          CaCO[18O]2(s)     0.00e+00     0.00e+00     0.00e+00
                           CaC[18O]3(s)     0.00e+00     0.00e+00     0.00e+00
                           Ca[13C]O3(s)     0.00e+00     0.00e+00     0.00e+00
                      Ca[13C]O2[18O](s)     0.00e+00     0.00e+00     0.00e+00
                      Ca[13C]O[18O]2(s)     0.00e+00     0.00e+00     0.00e+00
                       Ca[13C][18O]3(s)     0.00e+00     0.00e+00     0.00e+00
                           Ca[14C]O3(s)     0.00e+00     0.00e+00     0.00e+00
                      Ca[14C]O2[18O](s)     0.00e+00     0.00e+00     0.00e+00
                      Ca[14C]O[18O]2(s)     0.00e+00     0.00e+00     0.00e+00
                       Ca[14C][18O]3(s)     0.00e+00     0.00e+00     0.00e+00

--------------------------------Isotope Ratios---------------------------------

            Isotope Ratio	       Ratio	    Input Units

     R(18O)              	 1.99518e-03	        -4.9991  permil    
     R(13C)              	 1.09391e-02	        -21.569  permil    
     R(14C)              	 1.03804e-12	         88.277  pmc       
     R(18O) H2O(l)       	 1.99517e-03	        -5.0035  permil    
     R(18O) OH-          	 1.92120e-03	         -41.89  permil    
     R(18O) H3O+         	 2.04130e-03	         18.004  permil    
     R(13C) CO2(aq)      	 1.09149e-02	        -23.725  permil    
     R(14C) CO2(aq)      	 1.03345e-12	         87.887  pmc       
     R(18O) CO2(aq)      	 2.07913e-03	          36.87  permil    
     R(18O) HCO3-        	 1.99517e-03	        -5.0035  permil    
     R(13C) HCO3-        	 1.10099e-02	        -15.232  permil    
     R(14C) HCO3-        	 1.05151e-12	         89.423  pmc       
     R(18O) CO3-2        	 1.99517e-03	        -5.0035  permil    
     R(13C) CO3-2        	 1.09941e-02	        -16.645  permil    
     R(14C) CO3-2        	 1.04849e-12	         89.166  pmc       
     R(13C) CH4(aq)      	 1.09149e-02	        -23.725  permil    
     R(14C) CH4(aq)      	 1.03345e-12	         87.887  pmc       

--------------------------------Isotope Alphas---------------------------------

                                                              1000ln(Alpha)
                                                         ----------------------
     Isotope Ratio                   Solution alpha      Solution        25.0 C

Alpha 18O OH-/H2O(l)                        0.96293       -37.777       -37.777
Alpha 18O H3O+/H2O(l)                        1.0231         22.86         22.86
Alpha 18O CO2(aq)/H2O(l)                     1.0421        41.223        41.223
Alpha 18O HCO3-/H2O(l)                            1    4.4409e-13             0
Alpha 13C HCO3-/CO2(aq)                      1.0087        8.6622        8.6622
Alpha 14C HCO3-/CO2(aq)                      1.0175        17.324        17.324
Alpha 18O CO3-2/H2O(l)                            1    3.6702e-09             0
Alpha 13C CO3-2/CO2(aq)                      1.0073        7.2261        7.2261
Alpha 14C CO3-2/CO2(aq)                      1.0146        14.452        14.452
Alpha 13C CH4(aq)/CO2(aq)                         1    2.2204e-13             0
Alpha 14C CH4(aq)/CO2(aq)                         1   -4.1078e-12             0

-----------------------------Solution composition------------------------------

	Elements           Molality       Moles

	C                 3.912e-03   3.901e-03
	Ca                5.014e-04   5.000e-04
	[13C]             4.280e-05   4.267e-05
	[14C]             4.061e-15   4.049e-15
	[18O]             1.109e-01   1.105e-01

----------------------------Description of solution----------------------------

                                       pH  =   5.863      Charge balance
                                       pe  =   0.291      Adjusted to redox equilibrium
                        Activity of water  =   0.998
                 Ionic strength (mol/kgw)  =   1.495e-03
                       Mass of water (kg)  =   9.971e-01
                 Total alkalinity (eq/kg)  =   1.003e-03
                       Total CO2 (mol/kg)  =   3.912e-03
                         Temperature (°C)  =  25.00
                  Electrical balance (eq)  =   3.320e-14
 Percent error, 100*(Cat-|An|)/(Cat+|An|)  =   0.00
                               Iterations  =  18
                                  Total H  = 1.110126e+02
                                  Total O  = 5.540414e+01

----------------------------Distribution of species----------------------------

                                               Log       Log       Log    mole V
   Species          Molality    Activity  Molality  Activity     Gamma   cm³/mol

   H3O+            1.426e-06   1.369e-06    -5.846    -5.863    -0.018      0.00
   OH-             7.606e-09   7.282e-09    -8.119    -8.138    -0.019     (0)  
   H2O             5.556e+01   9.980e-01     1.745    -0.001     0.000     18.07
C(-4)         4.255e-28
   CH4             4.255e-28   4.256e-28   -27.371   -27.371     0.000     (0)  
C(4)          3.912e-03
   CO2             2.907e-03   2.908e-03    -2.537    -2.536     0.000     (0)  
   HCO3-           9.821e-04   9.406e-04    -3.008    -3.027    -0.019     (0)  
   CO[18O]         1.209e-05   1.209e-05    -4.918    -4.918     0.000     (0)  
   CaHCO3+         5.241e-06   5.023e-06    -5.281    -5.299    -0.018     (0)  
   HC[18O]O2-      1.959e-06   1.877e-06    -5.708    -5.727    -0.019     (0)  
   HCO[18O]O-      1.959e-06   1.877e-06    -5.708    -5.727    -0.019     (0)  
   HCO2[18O]-      1.959e-06   1.877e-06    -5.708    -5.727    -0.019     (0)  
   CO3-2           3.822e-08   3.216e-08    -7.418    -7.493    -0.075     (0)  
   CaCO3           2.260e-08   2.261e-08    -7.646    -7.646     0.000     (0)  
   C[18O]2         1.257e-08   1.257e-08    -7.901    -7.901     0.000     (0)  
   CaHCO2[18O]+    1.046e-08   1.002e-08    -7.981    -7.999    -0.018     (0)  
   CaHC[18O]O2+    1.046e-08   1.002e-08    -7.981    -7.999    -0.018     (0)  
   CaHCO[18O]O+    1.046e-08   1.002e-08    -7.981    -7.999    -0.018     (0)  
Ca            5.014e-04
   Ca+2            4.961e-04   4.184e-04    -3.304    -3.378    -0.074     (0)  
   CaHCO3+         5.241e-06   5.023e-06    -5.281    -5.299    -0.018     (0)  
   CaH[13C]O3+     5.770e-08   5.530e-08    -7.239    -7.257    -0.018     (0)  
   CaCO3           2.260e-08   2.261e-08    -7.646    -7.646     0.000     (0)  
   CaHCO2[18O]+    1.046e-08   1.002e-08    -7.981    -7.999    -0.018     (0)  
   CaHC[18O]O2+    1.046e-08   1.002e-08    -7.981    -7.999    -0.018     (0)  
   CaHCO[18O]O+    1.046e-08   1.002e-08    -7.981    -7.999    -0.018     (0)  
H(0)          6.986e-16
   H2              3.493e-16   3.494e-16   -15.457   -15.457     0.000     (0)  
O(0)          0.000e+00
   O2              0.000e+00   0.000e+00   -61.469   -61.468     0.000     (0)  
   O[18O]          0.000e+00   0.000e+00   -63.868   -63.867     0.000     (0)  
[13C](-4)     4.644e-30
   [13C]H4         4.644e-30   4.646e-30   -29.333   -29.333     0.000     (0)  
[13C](4)      4.280e-05
   [13C]O2         3.173e-05   3.174e-05    -4.499    -4.498     0.000     (0)  
   H[13C]O3-       1.081e-05   1.036e-05    -4.966    -4.985    -0.019     (0)  
   [13C]O[18O]     1.319e-07   1.320e-07    -6.880    -6.879     0.000     (0)  
   CaH[13C]O3+     5.770e-08   5.530e-08    -7.239    -7.257    -0.018     (0)  
   H[13C]O[18O]O-   2.157e-08   2.066e-08    -7.666    -7.685    -0.019     (0)  
   H[13C]O2[18O]-   2.157e-08   2.066e-08    -7.666    -7.685    -0.019     (0)  
   H[13C][18O]O2-   2.157e-08   2.066e-08    -7.666    -7.685    -0.019     (0)  
   [13C]O3-2       4.202e-10   3.535e-10    -9.377    -9.452    -0.075     (0)  
   Ca[13C]O3       2.484e-10   2.485e-10    -9.605    -9.605     0.000     (0)  
   [13C][18O]2     1.372e-10   1.372e-10    -9.863    -9.863     0.000     (0)  
   CaH[13C]O2[18O]+   1.151e-10   1.103e-10    -9.939    -9.957    -0.018     (0)  
   CaH[13C]O[18O]O+   1.151e-10   1.103e-10    -9.939    -9.957    -0.018     (0)  
   CaH[13C][18O]O2+   1.151e-10   1.103e-10    -9.939    -9.957    -0.018     (0)  
   H[13C][18O]2O-   4.304e-11   4.122e-11   -10.366   -10.385    -0.019     (0)  
   H[13C][18O]O[18O]-   4.304e-11   4.122e-11   -10.366   -10.385    -0.019     (0)  
   H[13C]O[18O]2-   4.304e-11   4.122e-11   -10.366   -10.385    -0.019     (0)  
[14C](-4)     4.397e-40
   [14C]H4         4.397e-40   4.398e-40   -39.357   -39.357     0.000     (0)  
[14C](4)      4.061e-15
   [14C]O2         3.004e-15   3.005e-15   -14.522   -14.522     0.000     (0)  
   H[14C]O3-       1.033e-15   9.890e-16   -14.986   -15.005    -0.019     (0)  
   [14C]O[18O]     1.249e-17   1.250e-17   -16.903   -16.903     0.000     (0)  
   CaH[14C]O3+     5.511e-18   5.281e-18   -17.259   -17.277    -0.018     (0)  
   H[14C][18O]O2-   2.060e-18   1.973e-18   -17.686   -17.705    -0.019     (0)  
   H[14C]O[18O]O-   2.060e-18   1.973e-18   -17.686   -17.705    -0.019     (0)  
   H[14C]O2[18O]-   2.060e-18   1.973e-18   -17.686   -17.705    -0.019     (0)  
   [14C]O3-2       4.008e-20   3.372e-20   -19.397   -19.472    -0.075     (0)  
   Ca[14C]O3       2.369e-20   2.370e-20   -19.625   -19.625     0.000     (0)  
   [14C][18O]2     1.299e-20   1.299e-20   -19.887   -19.886     0.000     (0)  
   CaH[14C]O2[18O]+   1.099e-20   1.054e-20   -19.959   -19.977    -0.018     (0)  
   CaH[14C][18O]O2+   1.099e-20   1.054e-20   -19.959   -19.977    -0.018     (0)  
   CaH[14C]O[18O]O+   1.099e-20   1.054e-20   -19.959   -19.977    -0.018     (0)  
   H[14C]O[18O]2-   4.111e-21   3.937e-21   -20.386   -20.405    -0.019     (0)  
   H[14C][18O]O[18O]-   4.111e-21   3.937e-21   -20.386   -20.405    -0.019     (0)  
   H[14C][18O]2O-   4.111e-21   3.937e-21   -20.386   -20.405    -0.019     (0)  
[18O](-2)     1.109e-01
   H2[18O]         1.108e-01   1.991e-03    -0.955    -2.701    -1.746     (0)  
   CO[18O]         1.209e-05   1.209e-05    -4.918    -4.918     0.000     (0)  
   HCO[18O]O-      1.959e-06   1.877e-06    -5.708    -5.727    -0.019     (0)  
   HCO2[18O]-      1.959e-06   1.877e-06    -5.708    -5.727    -0.019     (0)  
   HC[18O]O2-      1.959e-06   1.877e-06    -5.708    -5.727    -0.019     (0)  
   [13C]O[18O]     1.319e-07   1.320e-07    -6.880    -6.879     0.000     (0)  
[18O](0)      0.000e+00
   O[18O]          0.000e+00   0.000e+00   -63.868   -63.867     0.000     (0)  
   [18O]2          0.000e+00   0.000e+00   -66.869   -66.868     0.000     (0)  

------------------------------Saturation indices-------------------------------

  Phase               SI** log IAP   log K(298 K,   1 atm)

  [13C][18O]2(g)   -8.40     -9.90   -1.50  [13C][18O]2
  [13C]H4(g)      -26.47    -29.33   -2.86  [13C]H4
  [13C]O2(g)       -3.03     -4.50   -1.47  [13C]O2
  [13C]O[18O](g)   -5.41     -7.20   -1.79  [13C]O[18O]
  [14C][18O]2(g)  -18.42    -19.92   -1.50  [14C][18O]2
  [14C]H4(g)      -36.50    -39.36   -2.86  [14C]H4
  [14C]O2(g)      -13.05    -14.52   -1.47  [14C]O2
  [14C]O[18O](g)  -15.44    -17.22   -1.79  [14C]O[18O]
  [18O]2(g)       -64.58    -66.87   -2.29  [18O]2
  C[18O]2(g)       -6.43     -7.94   -1.50  C[18O]2
  Ca[13C][18O]3(s) -12.41     -4.25    8.16  Ca[13C][18O]3
  Ca[13C]O2[18O](s)  -6.56      1.15    7.71  Ca[13C]O2[18O]
  Ca[13C]O3(s)     -4.35      3.85    8.20  Ca[13C]O3
  Ca[13C]O[18O]2(s)  -9.25     -1.55    7.69  Ca[13C]O[18O]2
  Ca[14C][18O]3(s) -22.43    -14.28    8.15  Ca[14C][18O]3
  Ca[14C]O2[18O](s) -16.58     -8.88    7.70  Ca[14C]O2[18O]
  Ca[14C]O3(s)    -14.37     -6.18    8.19  Ca[14C]O3
  Ca[14C]O[18O]2(s) -19.27    -11.58    7.69  Ca[14C]O[18O]2
  CaC[18O]3(s)    -10.45     -2.29    8.16  CaC[18O]3
  CaCO2[18O](s)    -4.60      3.11    7.71  CaCO2[18O]
  CaCO[18O]2(s)    -7.29      0.41    7.70  CaCO[18O]2
  Calcite          -2.39    -10.87   -8.48  CaCO3
  CH4(g)          -24.51    -27.37   -2.86  CH4
  CO2(g)           -1.07     -2.54   -1.47  CO2
  CO[18O](g)       -3.45     -5.24   -1.79  CO[18O]
  H2(g)           -12.31    -15.46   -3.15  H2
  H2[18O](g)       -4.21     -2.70    1.51  H2[18O]
  H2O(g)           -1.51     -0.00    1.51  H2O
  O2(g)           -58.58    -61.47   -2.89  O2
  O[18O](g)       -61.28    -64.17   -2.89  O[18O]

**For a gas, SI = log10(fugacity). Fugacity = pressure * phi / 1 atm.
  For ideal gases, phi = 1.

------------------
End of simulation.
------------------

------------------------------------
Reading input data for simulation 9.
------------------------------------

	USE solution 1	
	USE solid_solution 1	
	USE reaction 1	
	SAVE solution 1	        
	END	
-----------------------------------------
Beginning of batch-reaction calculations.
-----------------------------------------

Reaction step 1.

Using solution 1.	Solution after simulation 8.
Using solid solution assemblage 1.	With [14C]
Using reaction 1.	

Reaction 1.	

	  5.000e-04 moles of the following reaction have been added:

	                 Relative
	Reactant            moles

	CaCO2[18O](s)        0.00608
	CaCO[18O]2(s)        0.00001
	CaC[18O]3(s)         0.00000
	Ca[13C]O2[18O](s)      0.00007
	Ca[13C]O3(s)         0.01101
	Ca[13C]O[18O]2(s)      0.00000
	Ca[13C][18O]3(s)      0.00000
	Calcite              0.98283

	                 Relative
	Element             moles
	C                    0.98893
	Ca                   1.00000
	O                    2.99384
	[13C]                0.01108
	[18O]                0.00618

----------------------------------User print-----------------------------------

Calcite added:             0 

--------------------------------Solid solutions--------------------------------


Solid solution                Component        Moles  Delta moles   Mole fract

Calcite                                     0.00e+00
                                Calcite     0.00e+00     0.00e+00     0.00e+00
                          CaCO2[18O](s)     0.00e+00     0.00e+00     0.00e+00
                          CaCO[18O]2(s)     0.00e+00     0.00e+00     0.00e+00
                           CaC[18O]3(s)     0.00e+00     0.00e+00     0.00e+00
                           Ca[13C]O3(s)     0.00e+00     0.00e+00     0.00e+00
                      Ca[13C]O2[18O](s)     0.00e+00     0.00e+00     0.00e+00
                      Ca[13C]O[18O]2(s)     0.00e+00     0.00e+00     0.00e+00
                       Ca[13C][18O]3(s)     0.00e+00     0.00e+00     0.00e+00
                           Ca[14C]O3(s)     0.00e+00     0.00e+00     0.00e+00
                      Ca[14C]O2[18O](s)     0.00e+00     0.00e+00     0.00e+00
                      Ca[14C]O[18O]2(s)     0.00e+00     0.00e+00     0.00e+00
                       Ca[14C][18O]3(s)     0.00e+00     0.00e+00     0.00e+00

--------------------------------Isotope Ratios---------------------------------

            Isotope Ratio	       Ratio	    Input Units

     R(18O)              	 1.99518e-03	        -4.9982  permil    
     R(13C)              	 1.09688e-02	        -18.909  permil    
     R(14C)              	 9.21264e-13	         78.346  pmc       
     R(18O) H2O(l)       	 1.99517e-03	        -5.0019  permil    
     R(18O) OH-          	 1.92120e-03	        -41.889  permil    
     R(18O) H3O+         	 2.04131e-03	         18.006  permil    
     R(18O) O2(aq)       	 1.99517e-03	        -5.0019  permil    
     R(13C) CO2(aq)      	 1.09260e-02	        -22.736  permil    
     R(14C) CO2(aq)      	 9.14074e-13	         77.735  pmc       
     R(18O) CO2(aq)      	 2.07914e-03	         36.872  permil    
     R(18O) HCO3-        	 1.99517e-03	        -5.0019  permil    
     R(13C) HCO3-        	 1.10211e-02	        -14.234  permil    
     R(14C) HCO3-        	 9.30048e-13	         79.093  pmc       
     R(18O) CO3-2        	 1.99517e-03	        -5.0019  permil    
     R(13C) CO3-2        	 1.10052e-02	        -15.648  permil    
     R(14C) CO3-2        	 9.27381e-13	         78.866  pmc       

--------------------------------Isotope Alphas---------------------------------

                                                              1000ln(Alpha)
                                                         ----------------------
     Isotope Ratio                   Solution alpha      Solution        25.0 C

Alpha 18O OH-/H2O(l)                        0.96293       -37.777       -37.777
Alpha 18O H3O+/H2O(l)                        1.0231         22.86         22.86
Alpha 18O O2(aq)/H2O(l)                           1   -2.2563e-09             0
Alpha 18O CO2(aq)/H2O(l)                     1.0421        41.223        41.223
Alpha 18O HCO3-/H2O(l)                            1   -2.2204e-13             0
Alpha 13C HCO3-/CO2(aq)                      1.0087        8.6622        8.6622
Alpha 14C HCO3-/CO2(aq)                      1.0175        17.324        17.324
Alpha 18O CO3-2/H2O(l)                            1   -1.2307e-09             0
Alpha 13C CO3-2/CO2(aq)                      1.0073        7.2261        7.2261
Alpha 14C CO3-2/CO2(aq)                      1.0146        14.452        14.452

-----------------------------Solution composition------------------------------

	Elements           Molality       Moles

	C                 4.408e-03   4.396e-03
	Ca                1.003e-03   1.000e-03
	[13C]             4.835e-05   4.821e-05
	[14C]             4.061e-15   4.049e-15
	[18O]             1.109e-01   1.105e-01

----------------------------Description of solution----------------------------

                                       pH  =   6.235      Charge balance
                                       pe  =  11.669      Adjusted to redox equilibrium
                        Activity of water  =   0.998
                 Ionic strength (mol/kgw)  =   2.970e-03
                       Mass of water (kg)  =   9.971e-01
                 Total alkalinity (eq/kg)  =   2.006e-03
                       Total CO2 (mol/kg)  =   4.408e-03
                         Temperature (°C)  =  25.00
                  Electrical balance (eq)  =   3.429e-14
 Percent error, 100*(Cat-|An|)/(Cat+|An|)  =   0.00
                               Iterations  =  16
                                  Total H  = 1.110126e+02
                                  Total O  = 5.540564e+01

----------------------------Distribution of species----------------------------

                                               Log       Log       Log    mole V
   Species          Molality    Activity  Molality  Activity     Gamma   cm³/mol

   H3O+            6.146e-07   5.816e-07    -6.211    -6.235    -0.024      0.00
   OH-             1.821e-08   1.714e-08    -7.740    -7.766    -0.026     (0)  
   H2O             5.556e+01   9.980e-01     1.745    -0.001     0.000     18.07
C(-4)         0.000e+00
   CH4             0.000e+00   0.000e+00  -121.450  -121.450     0.000     (0)  
C(4)          4.408e-03
   CO2             2.414e-03   2.416e-03    -2.617    -2.617     0.000     (0)  
   HCO3-           1.953e-03   1.840e-03    -2.709    -2.735    -0.026     (0)  
   CaHCO3+         1.936e-05   1.827e-05    -4.713    -4.738    -0.025     (0)  
   CO[18O]         1.004e-05   1.005e-05    -4.998    -4.998     0.000     (0)  
   HCO[18O]O-      3.896e-06   3.670e-06    -5.409    -5.435    -0.026     (0)  
   HCO2[18O]-      3.896e-06   3.670e-06    -5.409    -5.435    -0.026     (0)  
   HC[18O]O2-      3.896e-06   3.670e-06    -5.409    -5.435    -0.026     (0)  
   CaCO3           1.934e-07   1.935e-07    -6.714    -6.713     0.000     (0)  
   CO3-2           1.880e-07   1.481e-07    -6.726    -6.830    -0.104     (0)  
   CaHCO2[18O]+    3.863e-08   3.644e-08    -7.413    -7.438    -0.025     (0)  
   CaHC[18O]O2+    3.863e-08   3.644e-08    -7.413    -7.438    -0.025     (0)  
   CaHCO[18O]O+    3.863e-08   3.644e-08    -7.413    -7.438    -0.025     (0)  
   C[18O]2         1.044e-08   1.044e-08    -7.981    -7.981     0.000     (0)  
   HCO[18O]2-      7.773e-09   7.323e-09    -8.109    -8.135    -0.026     (0)  
   HC[18O]O[18O]-   7.773e-09   7.323e-09    -8.109    -8.135    -0.026     (0)  
   HC[18O]2O-      7.773e-09   7.323e-09    -8.109    -8.135    -0.026     (0)  
Ca            1.003e-03
   Ca+2            9.830e-04   7.781e-04    -3.007    -3.109    -0.102     (0)  
   CaHCO3+         1.936e-05   1.827e-05    -4.713    -4.738    -0.025     (0)  
   CaH[13C]O3+     2.134e-07   2.013e-07    -6.671    -6.696    -0.025     (0)  
   CaCO3           1.934e-07   1.935e-07    -6.714    -6.713     0.000     (0)  
   CaHCO2[18O]+    3.863e-08   3.644e-08    -7.413    -7.438    -0.025     (0)  
   CaHC[18O]O2+    3.863e-08   3.644e-08    -7.413    -7.438    -0.025     (0)  
   CaHCO[18O]O+    3.863e-08   3.644e-08    -7.413    -7.438    -0.025     (0)  
   Ca[13C]O3       2.128e-09   2.130e-09    -8.672    -8.672     0.000     (0)  
   CaCO2[18O]      1.158e-09   1.158e-09    -8.936    -8.936     0.000     (0)  
H(0)          2.210e-39
   H2              1.105e-39   1.106e-39   -38.957   -38.956     0.000     (0)  
O(0)          6.812e-15
   O2              3.393e-15   3.395e-15   -14.469   -14.469     0.000     (0)  
   O[18O]          1.354e-17   1.355e-17   -16.868   -16.868     0.000     (0)  
[13C](-4)     0.000e+00
   [13C]H4         0.000e+00   0.000e+00  -123.412  -123.412     0.000     (0)  
[13C](4)      4.835e-05
   [13C]O2         2.638e-05   2.639e-05    -4.579    -4.578     0.000     (0)  
   H[13C]O3-       2.152e-05   2.027e-05    -4.667    -4.693    -0.026     (0)  
   CaH[13C]O3+     2.134e-07   2.013e-07    -6.671    -6.696    -0.025     (0)  
   [13C]O[18O]     1.097e-07   1.098e-07    -6.960    -6.960     0.000     (0)  
   H[13C]O2[18O]-   4.294e-08   4.045e-08    -7.367    -7.393    -0.026     (0)  
   H[13C][18O]O2-   4.294e-08   4.045e-08    -7.367    -7.393    -0.026     (0)  
   H[13C]O[18O]O-   4.294e-08   4.045e-08    -7.367    -7.393    -0.026     (0)  
   Ca[13C]O3       2.128e-09   2.130e-09    -8.672    -8.672     0.000     (0)  
   [13C]O3-2       2.069e-09   1.629e-09    -8.684    -8.788    -0.104     (0)  
   CaH[13C]O2[18O]+   4.258e-10   4.016e-10    -9.371    -9.396    -0.025     (0)  
   CaH[13C]O[18O]O+   4.258e-10   4.016e-10    -9.371    -9.396    -0.025     (0)  
   CaH[13C][18O]O2+   4.258e-10   4.016e-10    -9.371    -9.396    -0.025     (0)  
   [13C][18O]2     1.140e-10   1.141e-10    -9.943    -9.943     0.000     (0)  
   H[13C][18O]2O-   8.566e-11   8.070e-11   -10.067   -10.093    -0.026     (0)  
   H[13C][18O]O[18O]-   8.566e-11   8.070e-11   -10.067   -10.093    -0.026     (0)  
   H[13C]O[18O]2-   8.566e-11   8.070e-11   -10.067   -10.093    -0.026     (0)  
[14C](-4)     0.000e+00
   [14C]H4         0.000e+00   0.000e+00  -133.489  -133.489     0.000     (0)  
[14C](4)      4.061e-15
   [14C]O2         2.207e-15   2.208e-15   -14.656   -14.656     0.000     (0)  
   H[14C]O3-       1.816e-15   1.711e-15   -14.741   -14.767    -0.026     (0)  
   CaH[14C]O3+     1.801e-17   1.699e-17   -16.745   -16.770    -0.025     (0)  
   [14C]O[18O]     9.176e-18   9.182e-18   -17.037   -17.037     0.000     (0)  
   H[14C]O[18O]O-   3.623e-18   3.413e-18   -17.441   -17.467    -0.026     (0)  
   H[14C]O2[18O]-   3.623e-18   3.413e-18   -17.441   -17.467    -0.026     (0)  
   H[14C][18O]O2-   3.623e-18   3.413e-18   -17.441   -17.467    -0.026     (0)  
   Ca[14C]O3       1.794e-19   1.795e-19   -18.746   -18.746     0.000     (0)  
   [14C]O3-2       1.743e-19   1.373e-19   -18.759   -18.862    -0.104     (0)  
   CaH[14C]O[18O]O+   3.593e-20   3.389e-20   -19.445   -19.470    -0.025     (0)  
   CaH[14C]O2[18O]+   3.593e-20   3.389e-20   -19.445   -19.470    -0.025     (0)  
   CaH[14C][18O]O2+   3.593e-20   3.389e-20   -19.445   -19.470    -0.025     (0)  
   [14C][18O]2     9.539e-21   9.545e-21   -20.021   -20.020     0.000     (0)  
   H[14C][18O]O[18O]-   7.229e-21   6.810e-21   -20.141   -20.167    -0.026     (0)  
   H[14C][18O]2O-   7.229e-21   6.810e-21   -20.141   -20.167    -0.026     (0)  
   H[14C]O[18O]2-   7.229e-21   6.810e-21   -20.141   -20.167    -0.026     (0)  
[18O](-2)     1.109e-01
   H2[18O]         1.108e-01   1.991e-03    -0.955    -2.701    -1.746     (0)  
   CO[18O]         1.004e-05   1.005e-05    -4.998    -4.998     0.000     (0)  
   HCO2[18O]-      3.896e-06   3.670e-06    -5.409    -5.435    -0.026     (0)  
   HC[18O]O2-      3.896e-06   3.670e-06    -5.409    -5.435    -0.026     (0)  
   HCO[18O]O-      3.896e-06   3.670e-06    -5.409    -5.435    -0.026     (0)  
[18O](0)      1.356e-17
   O[18O]          1.354e-17   1.355e-17   -16.868   -16.868     0.000     (0)  
   [18O]2          1.351e-20   1.351e-20   -19.869   -19.869     0.000     (0)  

------------------------------Saturation indices-------------------------------

  Phase               SI** log IAP   log K(298 K,   1 atm)

  [13C][18O]2(g)   -8.48     -9.98   -1.50  [13C][18O]2
  [13C]H4(g)     -120.55   -123.41   -2.86  [13C]H4
  [13C]O2(g)       -3.11     -4.58   -1.47  [13C]O2
  [13C]O[18O](g)   -5.49     -7.28   -1.79  [13C]O[18O]
  [14C][18O]2(g)  -18.55    -20.06   -1.50  [14C][18O]2
  [14C]H4(g)     -130.63   -133.49   -2.86  [14C]H4
  [14C]O2(g)      -13.19    -14.66   -1.47  [14C]O2
  [14C]O[18O](g)  -15.57    -17.36   -1.79  [14C]O[18O]
  [18O]2(g)       -17.58    -19.87   -2.29  [18O]2
  C[18O]2(g)       -6.51     -8.02   -1.50  C[18O]2
  Ca[13C][18O]3(s) -11.48     -3.32    8.16  Ca[13C][18O]3
  Ca[13C]O2[18O](s)  -5.63      2.08    7.71  Ca[13C]O2[18O]
  Ca[13C]O3(s)     -3.42      4.78    8.20  Ca[13C]O3
  Ca[13C]O[18O]2(s)  -8.31     -0.62    7.69  Ca[13C]O[18O]2
  Ca[14C][18O]3(s) -21.55    -13.40    8.15  Ca[14C][18O]3
  Ca[14C]O2[18O](s) -15.70     -8.00    7.70  Ca[14C]O2[18O]
  Ca[14C]O3(s)    -13.49     -5.30    8.19  Ca[14C]O3
  Ca[14C]O[18O]2(s) -18.39    -10.70    7.69  Ca[14C]O[18O]2
  CaC[18O]3(s)     -9.52     -1.36    8.16  CaC[18O]3
  CaCO2[18O](s)    -3.67      4.04    7.71  CaCO2[18O]
  CaCO[18O]2(s)    -6.36      1.34    7.70  CaCO[18O]2
  Calcite          -1.46     -9.94   -8.48  CaCO3
  CH4(g)         -118.59   -121.45   -2.86  CH4
  CO2(g)           -1.15     -2.62   -1.47  CO2
  CO[18O](g)       -3.53     -5.32   -1.79  CO[18O]
  H2(g)           -35.81    -38.96   -3.15  H2
  H2[18O](g)       -4.21     -2.70    1.51  H2[18O]
  H2O(g)           -1.51     -0.00    1.51  H2O
  O2(g)           -11.58    -14.47   -2.89  O2
  O[18O](g)       -14.28    -17.17   -2.89  O[18O]

**For a gas, SI = log10(fugacity). Fugacity = pressure * phi / 1 atm.
  For ideal gases, phi = 1.

------------------
End of simulation.
------------------

-------------------------------------
Reading input data for simulation 10.
-------------------------------------

	USE solution 1	
	USE solid_solution 1	
	USE reaction 1	
	SAVE solution 1	        
	END	
-----------------------------------------
Beginning of batch-reaction calculations.
-----------------------------------------

Reaction step 1.

Using solution 1.	Solution after simulation 9.
Using solid solution assemblage 1.	With [14C]
Using reaction 1.	

Reaction 1.	

	  5.000e-04 moles of the following reaction have been added:

	                 Relative
	Reactant            moles

	CaCO2[18O](s)        0.00608
	CaCO[18O]2(s)        0.00001
	CaC[18O]3(s)         0.00000
	Ca[13C]O2[18O](s)      0.00007
	Ca[13C]O3(s)         0.01101
	Ca[13C]O[18O]2(s)      0.00000
	Ca[13C][18O]3(s)      0.00000
	Calcite              0.98283

	                 Relative
	Element             moles
	C                    0.98893
	Ca                   1.00000
	O                    2.99384
	[13C]                0.01108
	[18O]                0.00618

----------------------------------User print-----------------------------------

Calcite added:             0 

--------------------------------Solid solutions--------------------------------


Solid solution                Component        Moles  Delta moles   Mole fract

Calcite                                     0.00e+00
                                Calcite     0.00e+00     0.00e+00     0.00e+00
                          CaCO2[18O](s)     0.00e+00     0.00e+00     0.00e+00
                          CaCO[18O]2(s)     0.00e+00     0.00e+00     0.00e+00
                           CaC[18O]3(s)     0.00e+00     0.00e+00     0.00e+00
                           Ca[13C]O3(s)     0.00e+00     0.00e+00     0.00e+00
                      Ca[13C]O2[18O](s)     0.00e+00     0.00e+00     0.00e+00
                      Ca[13C]O[18O]2(s)     0.00e+00     0.00e+00     0.00e+00
                       Ca[13C][18O]3(s)     0.00e+00     0.00e+00     0.00e+00
                           Ca[14C]O3(s)     0.00e+00     0.00e+00     0.00e+00
                      Ca[14C]O2[18O](s)     0.00e+00     0.00e+00     0.00e+00
                      Ca[14C]O[18O]2(s)     0.00e+00     0.00e+00     0.00e+00
                       Ca[14C][18O]3(s)     0.00e+00     0.00e+00     0.00e+00

--------------------------------Isotope Ratios---------------------------------

            Isotope Ratio	       Ratio	    Input Units

     R(18O)              	 1.99518e-03	        -4.9973  permil    
     R(13C)              	 1.09925e-02	        -16.788  permil    
     R(14C)              	 8.28108e-13	         70.424  pmc       
     R(18O) H2O(l)       	 1.99517e-03	        -5.0002  permil    
     R(18O) OH-          	 1.92121e-03	        -41.887  permil    
     R(18O) H3O+         	 2.04131e-03	         18.007  permil    
     R(18O) O2(aq)       	 1.99517e-03	        -5.0002  permil    
     R(13C) CO2(aq)      	 1.09348e-02	        -21.949  permil    
     R(14C) CO2(aq)      	 8.19422e-13	         69.685  pmc       
     R(18O) CO2(aq)      	 2.07914e-03	         36.873  permil    
     R(18O) HCO3-        	 1.99517e-03	        -5.0002  permil    
     R(13C) HCO3-        	 1.10299e-02	         -13.44  permil    
     R(14C) HCO3-        	 8.33742e-13	         70.903  pmc       
     R(18O) CO3-2        	 1.99517e-03	        -5.0002  permil    
     R(13C) CO3-2        	 1.10141e-02	        -14.856  permil    
     R(14C) CO3-2        	 8.31350e-13	           70.7  pmc       

--------------------------------Isotope Alphas---------------------------------

                                                              1000ln(Alpha)
                                                         ----------------------
     Isotope Ratio                   Solution alpha      Solution        25.0 C

Alpha 18O OH-/H2O(l)                        0.96293       -37.777       -37.777
Alpha 18O H3O+/H2O(l)                        1.0231         22.86         22.86
Alpha 18O O2(aq)/H2O(l)                           1   -2.2328e-09             0
Alpha 18O CO2(aq)/H2O(l)                     1.0421        41.223        41.223
Alpha 18O HCO3-/H2O(l)                            1   -2.2204e-12             0
Alpha 13C HCO3-/CO2(aq)                      1.0087        8.6622        8.6622
Alpha 14C HCO3-/CO2(aq)                      1.0175        17.324        17.324
Alpha 18O CO3-2/H2O(l)                            1   -2.4686e-09             0
Alpha 13C CO3-2/CO2(aq)                      1.0073        7.2261        7.2261
Alpha 14C CO3-2/CO2(aq)                      1.0146        14.452        14.452

-----------------------------Solution composition------------------------------

	Elements           Molality       Moles

	C                 4.904e-03   4.890e-03
	Ca                1.504e-03   1.500e-03
	[13C]             5.391e-05   5.375e-05
	[14C]             4.061e-15   4.049e-15
	[18O]             1.109e-01   1.105e-01

----------------------------Description of solution----------------------------

                                       pH  =   6.503      Charge balance
                                       pe  =  11.530      Adjusted to redox equilibrium
                        Activity of water  =   0.998
                 Ionic strength (mol/kgw)  =   4.428e-03
                       Mass of water (kg)  =   9.971e-01
                 Total alkalinity (eq/kg)  =   3.009e-03
                       Total CO2 (mol/kg)  =   4.904e-03
                         Temperature (°C)  =  25.00
                  Electrical balance (eq)  =   3.478e-13
 Percent error, 100*(Cat-|An|)/(Cat+|An|)  =   0.00
                               Iterations  =   4
                                  Total H  = 1.110126e+02
                                  Total O  = 5.540714e+01

----------------------------Distribution of species----------------------------

                                               Log       Log       Log    mole V
   Species          Molality    Activity  Molality  Activity     Gamma   cm³/mol

   H3O+            3.351e-07   3.139e-07    -6.475    -6.503    -0.028      0.00
   OH-             3.415e-08   3.176e-08    -7.467    -7.498    -0.032     (0)  
   H2O             5.556e+01   9.980e-01     1.745    -0.001     0.000     18.07
C(-4)         0.000e+00
   CH4             0.000e+00   0.000e+00  -122.581  -122.581     0.000     (0)  
C(4)          4.904e-03
   HCO3-           2.915e-03   2.713e-03    -2.535    -2.567    -0.031     (0)  
   CO2             1.921e-03   1.923e-03    -2.716    -2.716     0.000     (0)  
   CaHCO3+         4.102e-05   3.825e-05    -4.387    -4.417    -0.030     (0)  
   CO[18O]         7.989e-06   7.997e-06    -5.097    -5.097     0.000     (0)  
   HCO2[18O]-      5.816e-06   5.413e-06    -5.235    -5.267    -0.031     (0)  
   HC[18O]O2-      5.816e-06   5.413e-06    -5.235    -5.267    -0.031     (0)  
   HCO[18O]O-      5.816e-06   5.413e-06    -5.235    -5.267    -0.031     (0)  
   CaCO3           7.501e-07   7.509e-07    -6.125    -6.124     0.000     (0)  
   CO3-2           5.390e-07   4.046e-07    -6.268    -6.393    -0.125     (0)  
   CaHCO2[18O]+    8.184e-08   7.632e-08    -7.087    -7.117    -0.030     (0)  
   CaHCO[18O]O+    8.184e-08   7.632e-08    -7.087    -7.117    -0.030     (0)  
   CaHC[18O]O2+    8.184e-08   7.632e-08    -7.087    -7.117    -0.030     (0)  
   HC[18O]2O-      1.160e-08   1.080e-08    -7.935    -7.967    -0.031     (0)  
   HCO[18O]2-      1.160e-08   1.080e-08    -7.935    -7.967    -0.031     (0)  
   HC[18O]O[18O]-   1.160e-08   1.080e-08    -7.935    -7.967    -0.031     (0)  
   C[18O]2         8.305e-09   8.314e-09    -8.081    -8.080     0.000     (0)  
Ca            1.504e-03
   Ca+2            1.462e-03   1.105e-03    -2.835    -2.957    -0.122     (0)  
   CaHCO3+         4.102e-05   3.825e-05    -4.387    -4.417    -0.030     (0)  
   CaCO3           7.501e-07   7.509e-07    -6.125    -6.124     0.000     (0)  
   CaH[13C]O3+     4.525e-07   4.219e-07    -6.344    -6.375    -0.030     (0)  
   CaHCO2[18O]+    8.184e-08   7.632e-08    -7.087    -7.117    -0.030     (0)  
   CaHC[18O]O2+    8.184e-08   7.632e-08    -7.087    -7.117    -0.030     (0)  
   CaHCO[18O]O+    8.184e-08   7.632e-08    -7.087    -7.117    -0.030     (0)  
   Ca[13C]O3       8.262e-09   8.270e-09    -8.083    -8.082     0.000     (0)  
   CaCO2[18O]      4.490e-09   4.494e-09    -8.348    -8.347     0.000     (0)  
H(0)          1.220e-39
   H2              6.100e-40   6.106e-40   -39.215   -39.214     0.000     (0)  
O(0)          2.234e-14
   O2              1.112e-14   1.114e-14   -13.954   -13.953     0.000     (0)  
   O[18O]          4.439e-17   4.443e-17   -16.353   -16.352     0.000     (0)  
[13C](-4)     0.000e+00
   [13C]H4         0.000e+00   0.000e+00  -124.542  -124.542     0.000     (0)  
[13C](4)      5.391e-05
   H[13C]O3-       3.215e-05   2.993e-05    -4.493    -4.524    -0.031     (0)  
   [13C]O2         2.101e-05   2.103e-05    -4.678    -4.677     0.000     (0)  
   CaH[13C]O3+     4.525e-07   4.219e-07    -6.344    -6.375    -0.030     (0)  
   [13C]O[18O]     8.736e-08   8.745e-08    -7.059    -7.058     0.000     (0)  
   H[13C]O2[18O]-   6.415e-08   5.971e-08    -7.193    -7.224    -0.031     (0)  
   H[13C][18O]O2-   6.415e-08   5.971e-08    -7.193    -7.224    -0.031     (0)  
   H[13C]O[18O]O-   6.415e-08   5.971e-08    -7.193    -7.224    -0.031     (0)  
   Ca[13C]O3       8.262e-09   8.270e-09    -8.083    -8.082     0.000     (0)  
   [13C]O3-2       5.937e-09   4.456e-09    -8.226    -8.351    -0.125     (0)  
   CaH[13C]O[18O]O+   9.027e-10   8.418e-10    -9.044    -9.075    -0.030     (0)  
   CaH[13C][18O]O2+   9.027e-10   8.418e-10    -9.044    -9.075    -0.030     (0)  
   CaH[13C]O2[18O]+   9.027e-10   8.418e-10    -9.044    -9.075    -0.030     (0)  
   H[13C]O[18O]2-   1.280e-10   1.191e-10    -9.893    -9.924    -0.031     (0)  
   H[13C][18O]2O-   1.280e-10   1.191e-10    -9.893    -9.924    -0.031     (0)  
   H[13C][18O]O[18O]-   1.280e-10   1.191e-10    -9.893    -9.924    -0.031     (0)  
   [13C][18O]2     9.082e-11   9.091e-11   -10.042   -10.041     0.000     (0)  
[14C](-4)     0.000e+00
   [14C]H4         0.000e+00   0.000e+00  -134.668  -134.667     0.000     (0)  
[14C](4)      4.061e-15
   H[14C]O3-       2.430e-15   2.262e-15   -14.614   -14.645    -0.031     (0)  
   [14C]O2         1.574e-15   1.576e-15   -14.803   -14.802     0.000     (0)  
   CaH[14C]O3+     3.420e-17   3.189e-17   -16.466   -16.496    -0.030     (0)  
   [14C]O[18O]     6.547e-18   6.553e-18   -17.184   -17.184     0.000     (0)  
   H[14C]O[18O]O-   4.849e-18   4.513e-18   -17.314   -17.346    -0.031     (0)  
   H[14C]O2[18O]-   4.849e-18   4.513e-18   -17.314   -17.346    -0.031     (0)  
   H[14C][18O]O2-   4.849e-18   4.513e-18   -17.314   -17.346    -0.031     (0)  
   Ca[14C]O3       6.236e-19   6.242e-19   -18.205   -18.205     0.000     (0)  
   [14C]O3-2       4.481e-19   3.364e-19   -18.349   -18.473    -0.125     (0)  
   CaH[14C]O2[18O]+   6.824e-20   6.363e-20   -19.166   -19.196    -0.030     (0)  
   CaH[14C][18O]O2+   6.824e-20   6.363e-20   -19.166   -19.196    -0.030     (0)  
   CaH[14C]O[18O]O+   6.824e-20   6.363e-20   -19.166   -19.196    -0.030     (0)  
   H[14C]O[18O]2-   9.674e-21   9.005e-21   -20.014   -20.046    -0.031     (0)  
   H[14C][18O]O[18O]-   9.674e-21   9.005e-21   -20.014   -20.046    -0.031     (0)  
   H[14C][18O]2O-   9.674e-21   9.005e-21   -20.014   -20.046    -0.031     (0)  
   [14C][18O]2     6.806e-21   6.813e-21   -20.167   -20.167     0.000     (0)  
[18O](-2)     1.109e-01
   H2[18O]         1.108e-01   1.991e-03    -0.955    -2.701    -1.746     (0)  
   CO[18O]         7.989e-06   7.997e-06    -5.097    -5.097     0.000     (0)  
   HC[18O]O2-      5.816e-06   5.413e-06    -5.235    -5.267    -0.031     (0)  
   HCO[18O]O-      5.816e-06   5.413e-06    -5.235    -5.267    -0.031     (0)  
   HCO2[18O]-      5.816e-06   5.413e-06    -5.235    -5.267    -0.031     (0)  
[18O](0)      4.448e-17
   O[18O]          4.439e-17   4.443e-17   -16.353   -16.352     0.000     (0)  
   [18O]2          4.428e-20   4.433e-20   -19.354   -19.353     0.000     (0)  

------------------------------Saturation indices-------------------------------

  Phase               SI** log IAP   log K(298 K,   1 atm)

  [13C][18O]2(g)   -8.57    -10.08   -1.50  [13C][18O]2
  [13C]H4(g)     -121.68   -124.54   -2.86  [13C]H4
  [13C]O2(g)       -3.21     -4.68   -1.47  [13C]O2
  [13C]O[18O](g)   -5.59     -7.38   -1.79  [13C]O[18O]
  [14C][18O]2(g)  -18.70    -20.20   -1.50  [14C][18O]2
  [14C]H4(g)     -131.81   -134.67   -2.86  [14C]H4
  [14C]O2(g)      -13.33    -14.80   -1.47  [14C]O2
  [14C]O[18O](g)  -15.72    -17.50   -1.79  [14C]O[18O]
  [18O]2(g)       -17.06    -19.35   -2.29  [18O]2
  C[18O]2(g)       -6.61     -8.12   -1.50  C[18O]2
  Ca[13C][18O]3(s) -10.89     -2.73    8.16  Ca[13C][18O]3
  Ca[13C]O2[18O](s)  -5.04      2.67    7.71  Ca[13C]O2[18O]
  Ca[13C]O3(s)     -2.83      5.37    8.20  Ca[13C]O3
  Ca[13C]O[18O]2(s)  -7.72     -0.03    7.69  Ca[13C]O[18O]2
  Ca[14C][18O]3(s) -21.01    -12.86    8.15  Ca[14C][18O]3
  Ca[14C]O2[18O](s) -15.16     -7.46    7.70  Ca[14C]O2[18O]
  Ca[14C]O3(s)    -12.95     -4.76    8.19  Ca[14C]O3
  Ca[14C]O[18O]2(s) -17.85    -10.16    7.69  Ca[14C]O[18O]2
  CaC[18O]3(s)     -8.93     -0.77    8.16  CaC[18O]3
  CaCO2[18O](s)    -3.08      4.63    7.71  CaCO2[18O]
  CaCO[18O]2(s)    -5.77      1.93    7.70  CaCO[18O]2
  Calcite          -0.87     -9.35   -8.48  CaCO3
  CH4(g)         -119.72   -122.58   -2.86  CH4
  CO2(g)           -1.25     -2.72   -1.47  CO2
  CO[18O](g)       -3.63     -5.42   -1.79  CO[18O]
  H2(g)           -36.06    -39.21   -3.15  H2
  H2[18O](g)       -4.21     -2.70    1.51  H2[18O]
  H2O(g)           -1.51     -0.00    1.51  H2O
  O2(g)           -11.06    -13.95   -2.89  O2
  O[18O](g)       -13.76    -16.65   -2.89  O[18O]

**For a gas, SI = log10(fugacity). Fugacity = pressure * phi / 1 atm.
  For ideal gases, phi = 1.

------------------
End of simulation.
------------------

-------------------------------------
Reading input data for simulation 11.
-------------------------------------

	USE solution 1	
	USE solid_solution 1	
	USE reaction 1	
	SAVE solution 1	        
	END	
-----------------------------------------
Beginning of batch-reaction calculations.
-----------------------------------------

Reaction step 1.

Using solution 1.	Solution after simulation 10.
Using solid solution assemblage 1.	With [14C]
Using reaction 1.	

Reaction 1.	

	  5.000e-04 moles of the following reaction have been added:

	                 Relative
	Reactant            moles

	CaCO2[18O](s)        0.00608
	CaCO[18O]2(s)        0.00001
	CaC[18O]3(s)         0.00000
	Ca[13C]O2[18O](s)      0.00007
	Ca[13C]O3(s)         0.01101
	Ca[13C]O[18O]2(s)      0.00000
	Ca[13C][18O]3(s)      0.00000
	Calcite              0.98283

	                 Relative
	Element             moles
	C                    0.98893
	Ca                   1.00000
	O                    2.99384
	[13C]                0.01108
	[18O]                0.00618

----------------------------------User print-----------------------------------

Calcite added:             0 

--------------------------------Solid solutions--------------------------------


Solid solution                Component        Moles  Delta moles   Mole fract

Calcite                                     0.00e+00
                                Calcite     0.00e+00     0.00e+00     0.00e+00
                          CaCO2[18O](s)     0.00e+00     0.00e+00     0.00e+00
                          CaCO[18O]2(s)     0.00e+00     0.00e+00     0.00e+00
                           CaC[18O]3(s)     0.00e+00     0.00e+00     0.00e+00
                           Ca[13C]O3(s)     0.00e+00     0.00e+00     0.00e+00
                      Ca[13C]O2[18O](s)     0.00e+00     0.00e+00     0.00e+00
                      Ca[13C]O[18O]2(s)     0.00e+00     0.00e+00     0.00e+00
                       Ca[13C][18O]3(s)     0.00e+00     0.00e+00     0.00e+00
                           Ca[14C]O3(s)     0.00e+00     0.00e+00     0.00e+00
                      Ca[14C]O2[18O](s)     0.00e+00     0.00e+00     0.00e+00
                      Ca[14C]O[18O]2(s)     0.00e+00     0.00e+00     0.00e+00
                       Ca[14C][18O]3(s)     0.00e+00     0.00e+00     0.00e+00

--------------------------------Isotope Ratios---------------------------------

            Isotope Ratio	       Ratio	    Input Units

     R(18O)              	 1.99518e-03	        -4.9963  permil    
     R(13C)              	 1.10119e-02	        -15.056  permil    
     R(14C)              	 7.52061e-13	         63.957  pmc       
     R(18O) H2O(l)       	 1.99518e-03	        -4.9985  permil    
     R(18O) OH-          	 1.92121e-03	        -41.886  permil    
     R(18O) H3O+         	 2.04131e-03	         18.009  permil    
     R(18O) O2(aq)       	 1.99518e-03	        -4.9985  permil    
     R(13C) CO2(aq)      	 1.09420e-02	        -21.306  permil    
     R(14C) CO2(aq)      	 7.42536e-13	         63.147  pmc       
     R(18O) CO2(aq)      	 2.07914e-03	         36.875  permil    
     R(18O) HCO3-        	 1.99518e-03	        -4.9985  permil    
     R(13C) HCO3-        	 1.10372e-02	        -12.791  permil    
     R(14C) HCO3-        	 7.55512e-13	          64.25  pmc       
     R(18O) CO3-2        	 1.99518e-03	        -4.9985  permil    
     R(13C) CO3-2        	 1.10214e-02	        -14.208  permil    
     R(14C) CO3-2        	 7.53345e-13	         64.066  pmc       

--------------------------------Isotope Alphas---------------------------------

                                                              1000ln(Alpha)
                                                         ----------------------
     Isotope Ratio                   Solution alpha      Solution        25.0 C

Alpha 18O OH-/H2O(l)                        0.96293       -37.777       -37.777
Alpha 18O H3O+/H2O(l)                        1.0231         22.86         22.86
Alpha 18O O2(aq)/H2O(l)                           1   -2.2736e-09             0
Alpha 18O CO2(aq)/H2O(l)                     1.0421        41.223        41.223
Alpha 18O HCO3-/H2O(l)                            1    1.5543e-12             0
Alpha 13C HCO3-/CO2(aq)                      1.0087        8.6622        8.6622
Alpha 14C HCO3-/CO2(aq)                      1.0175        17.324        17.324
Alpha 18O CO3-2/H2O(l)                            1   -1.9482e-09             0
Alpha 13C CO3-2/CO2(aq)                      1.0073        7.2261        7.2261
Alpha 14C CO3-2/CO2(aq)                      1.0146        14.452        14.452

-----------------------------Solution composition------------------------------

	Elements           Molality       Moles

	C                 5.400e-03   5.384e-03
	Ca                2.006e-03   2.000e-03
	[13C]             5.947e-05   5.929e-05
	[14C]             4.061e-15   4.049e-15
	[18O]             1.109e-01   1.106e-01

----------------------------Description of solution----------------------------

                                       pH  =   6.750      Charge balance
                                       pe  =  11.307      Adjusted to redox equilibrium
                        Activity of water  =   0.998
                 Ionic strength (mol/kgw)  =   5.871e-03
                       Mass of water (kg)  =   9.971e-01
                 Total alkalinity (eq/kg)  =   4.012e-03
                       Total CO2 (mol/kg)  =   5.400e-03
                         Temperature (°C)  =  25.00
                  Electrical balance (eq)  =   3.536e-13
 Percent error, 100*(Cat-|An|)/(Cat+|An|)  =   0.00
                               Iterations  =   4
                                  Total H  = 1.110126e+02
                                  Total O  = 5.540863e+01

----------------------------Distribution of species----------------------------

                                               Log       Log       Log    mole V
   Species          Molality    Activity  Molality  Activity     Gamma   cm³/mol

   H3O+            1.914e-07   1.778e-07    -6.718    -6.750    -0.032      0.00
   OH-             6.090e-08   5.607e-08    -7.215    -7.251    -0.036     (0)  
   H2O             5.556e+01   9.980e-01     1.745    -0.001     0.000     18.07
C(-4)         0.000e+00
   CH4             0.000e+00   0.000e+00  -122.902  -122.902     0.001     (0)  
C(4)          5.400e-03
   HCO3-           3.868e-03   3.565e-03    -2.413    -2.448    -0.035     (0)  
   CO2             1.430e-03   1.432e-03    -2.845    -2.844     0.001     (0)  
   CaHCO3+         6.931e-05   6.403e-05    -4.159    -4.194    -0.034     (0)  
   HCO2[18O]-      7.717e-06   7.113e-06    -5.113    -5.148    -0.035     (0)  
   HC[18O]O2-      7.717e-06   7.113e-06    -5.113    -5.148    -0.035     (0)  
   HCO[18O]O-      7.717e-06   7.113e-06    -5.113    -5.148    -0.035     (0)  
   CO[18O]         5.945e-06   5.953e-06    -5.226    -5.225     0.001     (0)  
   CaCO3           2.216e-06   2.219e-06    -5.654    -5.654     0.001     (0)  
   CO3-2           1.300e-06   9.385e-07    -5.886    -6.028    -0.142     (0)  
   CaHCO2[18O]+    1.383e-07   1.277e-07    -6.859    -6.894    -0.034     (0)  
   CaHC[18O]O2+    1.383e-07   1.277e-07    -6.859    -6.894    -0.034     (0)  
   CaHCO[18O]O+    1.383e-07   1.277e-07    -6.859    -6.894    -0.034     (0)  
   HC[18O]2O-      1.540e-08   1.419e-08    -7.813    -7.848    -0.035     (0)  
   HCO[18O]2-      1.540e-08   1.419e-08    -7.813    -7.848    -0.035     (0)  
   HC[18O]O[18O]-   1.540e-08   1.419e-08    -7.813    -7.848    -0.035     (0)  
   CaCO2[18O]      1.326e-08   1.328e-08    -7.877    -7.877     0.001     (0)  
   CO2[18O]-2      7.783e-09   5.618e-09    -8.109    -8.250    -0.142     (0)  
   C[18O]2         6.180e-09   6.189e-09    -8.209    -8.208     0.001     (0)  
Ca            2.006e-03
   Ca+2            1.933e-03   1.407e-03    -2.714    -2.852    -0.138     (0)  
   CaHCO3+         6.931e-05   6.403e-05    -4.159    -4.194    -0.034     (0)  
   CaCO3           2.216e-06   2.219e-06    -5.654    -5.654     0.001     (0)  
   CaH[13C]O3+     7.650e-07   7.067e-07    -6.116    -6.151    -0.034     (0)  
   CaHCO2[18O]+    1.383e-07   1.277e-07    -6.859    -6.894    -0.034     (0)  
   CaHC[18O]O2+    1.383e-07   1.277e-07    -6.859    -6.894    -0.034     (0)  
   CaHCO[18O]O+    1.383e-07   1.277e-07    -6.859    -6.894    -0.034     (0)  
   Ca[13C]O3       2.442e-08   2.445e-08    -7.612    -7.612     0.001     (0)  
   CaCO2[18O]      1.326e-08   1.328e-08    -7.877    -7.877     0.001     (0)  
H(0)          1.092e-39
   H2              5.458e-40   5.466e-40   -39.263   -39.262     0.001     (0)  
O(0)          2.787e-14
   O2              1.388e-14   1.390e-14   -13.858   -13.857     0.001     (0)  
   O[18O]          5.539e-17   5.546e-17   -16.257   -16.256     0.001     (0)  
[13C](-4)     0.000e+00
   [13C]H4         0.000e+00   0.000e+00  -124.863  -124.862     0.001     (0)  
[13C](4)      5.947e-05
   H[13C]O3-       4.269e-05   3.935e-05    -4.370    -4.405    -0.035     (0)  
   [13C]O2         1.564e-05   1.566e-05    -4.806    -4.805     0.001     (0)  
   CaH[13C]O3+     7.650e-07   7.067e-07    -6.116    -6.151    -0.034     (0)  
   H[13C]O2[18O]-   8.518e-08   7.851e-08    -7.070    -7.105    -0.035     (0)  
   H[13C][18O]O2-   8.518e-08   7.851e-08    -7.070    -7.105    -0.035     (0)  
   H[13C]O[18O]O-   8.518e-08   7.851e-08    -7.070    -7.105    -0.035     (0)  
   [13C]O[18O]     6.505e-08   6.514e-08    -7.187    -7.186     0.001     (0)  
   Ca[13C]O3       2.442e-08   2.445e-08    -7.612    -7.612     0.001     (0)  
   [13C]O3-2       1.433e-08   1.034e-08    -7.844    -7.985    -0.142     (0)  
   CaH[13C][18O]O2+   1.526e-09   1.410e-09    -8.816    -8.851    -0.034     (0)  
   CaH[13C]O2[18O]+   1.526e-09   1.410e-09    -8.816    -8.851    -0.034     (0)  
   CaH[13C]O[18O]O+   1.526e-09   1.410e-09    -8.816    -8.851    -0.034     (0)  
   H[13C]O[18O]2-   1.699e-10   1.566e-10    -9.770    -9.805    -0.035     (0)  
   H[13C][18O]2O-   1.699e-10   1.566e-10    -9.770    -9.805    -0.035     (0)  
   H[13C][18O]O[18O]-   1.699e-10   1.566e-10    -9.770    -9.805    -0.035     (0)  
   Ca[13C]O2[18O]   1.462e-10   1.464e-10    -9.835    -9.835     0.001     (0)  
   [13C]O2[18O]-2   8.578e-11   6.191e-11   -10.067   -10.208    -0.142     (0)  
   [13C][18O]2     6.763e-11   6.772e-11   -10.170   -10.169     0.001     (0)  
[14C](-4)     0.000e+00
   [14C]H4         0.000e+00   0.000e+00  -135.031  -135.031     0.001     (0)  
[14C](4)      4.061e-15
   H[14C]O3-       2.922e-15   2.694e-15   -14.534   -14.570    -0.035     (0)  
   [14C]O2         1.062e-15   1.063e-15   -14.974   -14.973     0.001     (0)  
   CaH[14C]O3+     5.236e-17   4.837e-17   -16.281   -16.315    -0.034     (0)  
   H[14C][18O]O2-   5.831e-18   5.374e-18   -17.234   -17.270    -0.035     (0)  
   H[14C]O[18O]O-   5.831e-18   5.374e-18   -17.234   -17.270    -0.035     (0)  
   H[14C]O2[18O]-   5.831e-18   5.374e-18   -17.234   -17.270    -0.035     (0)  
   [14C]O[18O]     4.414e-18   4.420e-18   -17.355   -17.355     0.001     (0)  
   Ca[14C]O3       1.669e-18   1.671e-18   -17.777   -17.777     0.001     (0)  
   [14C]O3-2       9.796e-19   7.070e-19   -18.009   -18.151    -0.142     (0)  
   CaH[14C]O2[18O]+   1.045e-19   9.651e-20   -18.981   -19.015    -0.034     (0)  
   CaH[14C][18O]O2+   1.045e-19   9.651e-20   -18.981   -19.015    -0.034     (0)  
   CaH[14C]O[18O]O+   1.045e-19   9.651e-20   -18.981   -19.015    -0.034     (0)  
   H[14C][18O]O[18O]-   1.163e-20   1.072e-20   -19.934   -19.970    -0.035     (0)  
   H[14C][18O]2O-   1.163e-20   1.072e-20   -19.934   -19.970    -0.035     (0)  
   H[14C]O[18O]2-   1.163e-20   1.072e-20   -19.934   -19.970    -0.035     (0)  
   Ca[14C]O2[18O]   9.991e-21   1.000e-20   -20.000   -20.000     0.001     (0)  
   [14C]O2[18O]-2   5.863e-21   4.232e-21   -20.232   -20.373    -0.142     (0)  
   [14C][18O]2     4.589e-21   4.595e-21   -20.338   -20.338     0.001     (0)  
[18O](-2)     1.109e-01
   H2[18O]         1.108e-01   1.991e-03    -0.955    -2.701    -1.746     (0)  
   HCO2[18O]-      7.717e-06   7.113e-06    -5.113    -5.148    -0.035     (0)  
   HC[18O]O2-      7.717e-06   7.113e-06    -5.113    -5.148    -0.035     (0)  
   HCO[18O]O-      7.717e-06   7.113e-06    -5.113    -5.148    -0.035     (0)  
   CO[18O]         5.945e-06   5.953e-06    -5.226    -5.225     0.001     (0)  
   CaHCO2[18O]+    1.383e-07   1.277e-07    -6.859    -6.894    -0.034     (0)  
   CaHCO[18O]O+    1.383e-07   1.277e-07    -6.859    -6.894    -0.034     (0)  
   CaHC[18O]O2+    1.383e-07   1.277e-07    -6.859    -6.894    -0.034     (0)  
[18O](0)      5.550e-17
   O[18O]          5.539e-17   5.546e-17   -16.257   -16.256     0.001     (0)  
   [18O]2          5.525e-20   5.533e-20   -19.258   -19.257     0.001     (0)  

------------------------------Saturation indices-------------------------------

  Phase               SI** log IAP   log K(298 K,   1 atm)

  [13C][18O]2(g)   -8.70    -10.21   -1.50  [13C][18O]2
  [13C]H4(g)     -122.00   -124.86   -2.86  [13C]H4
  [13C]O2(g)       -3.34     -4.81   -1.47  [13C]O2
  [13C]O[18O](g)   -5.72     -7.51   -1.79  [13C]O[18O]
  [14C][18O]2(g)  -18.87    -20.37   -1.50  [14C][18O]2
  [14C]H4(g)     -132.17   -135.03   -2.86  [14C]H4
  [14C]O2(g)      -13.50    -14.97   -1.47  [14C]O2
  [14C]O[18O](g)  -15.89    -17.67   -1.79  [14C]O[18O]
  [18O]2(g)       -16.97    -19.26   -2.29  [18O]2
  C[18O]2(g)       -6.74     -8.24   -1.50  C[18O]2
  Ca[13C][18O]3(s) -10.42     -2.26    8.16  Ca[13C][18O]3
  Ca[13C]O2[18O](s)  -4.57      3.14    7.71  Ca[13C]O2[18O]
  Ca[13C]O3(s)     -2.36      5.84    8.20  Ca[13C]O3
  Ca[13C]O[18O]2(s)  -7.25      0.44    7.69  Ca[13C]O[18O]2
  Ca[14C][18O]3(s) -20.58    -12.43    8.15  Ca[14C][18O]3
  Ca[14C]O2[18O](s) -14.73     -7.03    7.70  Ca[14C]O2[18O]
  Ca[14C]O3(s)    -12.52     -4.33    8.19  Ca[14C]O3
  Ca[14C]O[18O]2(s) -17.42     -9.73    7.69  Ca[14C]O[18O]2
  CaC[18O]3(s)     -8.46     -0.30    8.16  CaC[18O]3
  CaCO2[18O](s)    -2.61      5.10    7.71  CaCO2[18O]
  CaCO[18O]2(s)    -5.30      2.40    7.70  CaCO[18O]2
  Calcite          -0.40     -8.88   -8.48  CaCO3
  CH4(g)         -120.04   -122.90   -2.86  CH4
  CO2(g)           -1.38     -2.84   -1.47  CO2
  CO[18O](g)       -3.76     -5.54   -1.79  CO[18O]
  H2(g)           -36.11    -39.26   -3.15  H2
  H2[18O](g)       -4.21     -2.70    1.51  H2[18O]
  H2O(g)           -1.51     -0.00    1.51  H2O
  O2(g)           -10.96    -13.86   -2.89  O2
  O[18O](g)       -13.66    -16.56   -2.89  O[18O]

**For a gas, SI = log10(fugacity). Fugacity = pressure * phi / 1 atm.
  For ideal gases, phi = 1.

------------------
End of simulation.
------------------

-------------------------------------
Reading input data for simulation 12.
-------------------------------------

	USE solution 1	
	USE solid_solution 1	
	USE reaction 1	
	SAVE solution 1	        
	END	
-----------------------------------------
Beginning of batch-reaction calculations.
-----------------------------------------

Reaction step 1.

Using solution 1.	Solution after simulation 11.
Using solid solution assemblage 1.	With [14C]
Using reaction 1.	

Reaction 1.	

	  5.000e-04 moles of the following reaction have been added:

	                 Relative
	Reactant            moles

	CaCO2[18O](s)        0.00608
	CaCO[18O]2(s)        0.00001
	CaC[18O]3(s)         0.00000
	Ca[13C]O2[18O](s)      0.00007
	Ca[13C]O3(s)         0.01101
	Ca[13C]O[18O]2(s)      0.00000
	Ca[13C][18O]3(s)      0.00000
	Calcite              0.98283

	                 Relative
	Element             moles
	C                    0.98893
	Ca                   1.00000
	O                    2.99384
	[13C]                0.01108
	[18O]                0.00618

----------------------------------User print-----------------------------------

Calcite added:             0 

--------------------------------Solid solutions--------------------------------


Solid solution                Component        Moles  Delta moles   Mole fract

Calcite                                     1.05e-25
                                Calcite     1.00e-27     0.00e+00     9.49e-03
                          CaCO2[18O](s)     1.00e-27     0.00e+00     9.49e-03
                          CaCO[18O]2(s)     1.00e-27     0.00e+00     9.49e-03
                           CaC[18O]3(s)     1.00e-27     0.00e+00     9.49e-03
                           Ca[13C]O3(s)     1.00e-27     0.00e+00     9.49e-03
                      Ca[13C]O2[18O](s)     1.00e-27     0.00e+00     9.49e-03
                      Ca[13C]O[18O]2(s)     1.00e-27     0.00e+00     9.49e-03
                       Ca[13C][18O]3(s)     1.00e-27     0.00e+00     9.49e-03
                           Ca[14C]O3(s)     1.00e-27     0.00e+00     9.49e-03
                      Ca[14C]O2[18O](s)     1.00e-27     0.00e+00     9.49e-03
                      Ca[14C]O[18O]2(s)     1.00e-27     0.00e+00     9.49e-03
                       Ca[14C][18O]3(s)     9.44e-26     9.34e-26     8.96e-01

--------------------------------Isotope Ratios---------------------------------

            Isotope Ratio	       Ratio	    Input Units

     R(18O)              	 1.99518e-03	        -4.9954  permil    
     R(13C)              	 1.10280e-02	        -13.615  permil    
     R(14C)              	 6.88807e-13	         58.578  pmc       
     R(18O) H2O(l)       	 1.99518e-03	        -4.9969  permil    
     R(18O) OH-          	 1.92121e-03	        -41.884  permil    
     R(18O) H3O+         	 2.04132e-03	         18.011  permil    
     R(18O) O2(aq)       	 1.99518e-03	        -4.9969  permil    
     R(13C) CO2(aq)      	 1.09480e-02	        -20.766  permil    
     R(14C) CO2(aq)      	 6.78849e-13	         57.731  pmc       
     R(18O) CO2(aq)      	 2.07915e-03	         36.877  permil    
     R(18O) HCO3-        	 1.99518e-03	        -4.9969  permil    
     R(13C) HCO3-        	 1.10433e-02	        -12.247  permil    
     R(14C) HCO3-        	 6.90712e-13	          58.74  pmc       
     R(18O) CO3-2        	 1.99518e-03	        -4.9969  permil    
     R(13C) CO3-2        	 1.10274e-02	        -13.664  permil    
     R(14C) CO3-2        	 6.88731e-13	         58.571  pmc       
     R(18O) Calcite      	 1.65715e+01	     8.2632e+06  permil    
     R(13C) Calcite      	 1.00000e+00	          88444  permil    
     R(14C) Calcite      	 2.43572e+01	     2.0714e+15  pmc       

--------------------------------Isotope Alphas---------------------------------

                                                              1000ln(Alpha)
                                                         ----------------------
     Isotope Ratio                   Solution alpha      Solution        25.0 C

Alpha 18O OH-/H2O(l)                        0.96293       -37.777       -37.777
Alpha 18O H3O+/H2O(l)                        1.0231         22.86         22.86
Alpha 18O O2(aq)/H2O(l)                           1   -2.2562e-09             0
Alpha 18O CO2(aq)/H2O(l)                     1.0421        41.223        41.223
Alpha 18O HCO3-/H2O(l)                            1   -6.1062e-12             0
Alpha 13C HCO3-/CO2(aq)                      1.0087        8.6622        8.6622
Alpha 14C HCO3-/CO2(aq)                      1.0175        17.324        17.324
Alpha 18O CO3-2/H2O(l)                            1   -1.7646e-09             0
Alpha 13C CO3-2/CO2(aq)                      1.0073        7.2261        7.2261
Alpha 14C CO3-2/CO2(aq)                      1.0146        14.452        14.452
Alpha 18O Calcite/H2O(l)                     8305.8        9024.7        28.383
Alpha 13C Calcite/CO2(aq)                    91.341        4514.6        10.641
Alpha 14C Calcite/CO2(aq)                 3.588e+13         31211        21.282

-----------------------------Solution composition------------------------------

	Elements           Molality       Moles

	C                 5.896e-03   5.879e-03
	Ca                2.507e-03   2.500e-03
	[13C]             6.502e-05   6.483e-05
	[14C]             4.061e-15   4.049e-15
	[18O]             1.109e-01   1.106e-01

----------------------------Description of solution----------------------------

                                       pH  =   7.022      Charge balance
                                       pe  =  10.939      Adjusted to redox equilibrium
                        Activity of water  =   0.998
                 Ionic strength (mol/kgw)  =   7.296e-03
                       Mass of water (kg)  =   9.971e-01
                 Total alkalinity (eq/kg)  =   5.015e-03
                       Total CO2 (mol/kg)  =   5.896e-03
                         Temperature (°C)  =  25.00
                  Electrical balance (eq)  =   3.536e-13
 Percent error, 100*(Cat-|An|)/(Cat+|An|)  =   0.00
                               Iterations  =  88
                                  Total H  = 1.110126e+02
                                  Total O  = 5.541013e+01

----------------------------Distribution of species----------------------------

                                               Log       Log       Log    mole V
   Species          Molality    Activity  Molality  Activity     Gamma   cm³/mol

   OH-             1.149e-07   1.049e-07    -6.940    -6.979    -0.040     (0)  
   H3O+            1.030e-07   9.503e-08    -6.987    -7.022    -0.035      0.00
   H2O             5.556e+01   9.980e-01     1.745    -0.001     0.000     18.07
C(-4)         0.000e+00
   CH4             0.000e+00   0.000e+00  -122.317  -122.317     0.001     (0)  
C(4)          5.896e-03
   HCO3-           4.808e-03   4.395e-03    -2.318    -2.357    -0.039     (0)  
   CO2             9.416e-04   9.432e-04    -3.026    -3.025     0.001     (0)  
   CaHCO3+         1.034e-04   9.479e-05    -3.985    -4.023    -0.038     (0)  
   HC[18O]O2-      9.594e-06   8.769e-06    -5.018    -5.057    -0.039     (0)  
   HCO[18O]O-      9.594e-06   8.769e-06    -5.018    -5.057    -0.039     (0)  
   HCO2[18O]-      9.594e-06   8.769e-06    -5.018    -5.057    -0.039     (0)  
   CaCO3           6.136e-06   6.146e-06    -5.212    -5.211     0.001     (0)  
   CO[18O]         3.915e-06   3.922e-06    -5.407    -5.406     0.001     (0)  
   CO3-2           3.101e-06   2.165e-06    -5.508    -5.665    -0.156     (0)  
   CaHCO2[18O]+    2.063e-07   1.891e-07    -6.685    -6.723    -0.038     (0)  
   CaHC[18O]O2+    2.063e-07   1.891e-07    -6.685    -6.723    -0.038     (0)  
   CaHCO[18O]O+    2.063e-07   1.891e-07    -6.685    -6.723    -0.038     (0)  
   CaCO2[18O]      3.673e-08   3.679e-08    -7.435    -7.434     0.001     (0)  
   HC[18O]O[18O]-   1.914e-08   1.750e-08    -7.718    -7.757    -0.039     (0)  
   HCO[18O]2-      1.914e-08   1.750e-08    -7.718    -7.757    -0.039     (0)  
   HC[18O]2O-      1.914e-08   1.750e-08    -7.718    -7.757    -0.039     (0)  
   CO2[18O]-2      1.856e-08   1.296e-08    -7.731    -7.887    -0.156     (0)  
Ca            2.507e-03
   Ca+2            2.396e-03   1.690e-03    -2.621    -2.772    -0.152     (0)  
   CaHCO3+         1.034e-04   9.479e-05    -3.985    -4.023    -0.038     (0)  
   CaCO3           6.136e-06   6.146e-06    -5.212    -5.211     0.001     (0)  
   CaH[13C]O3+     1.142e-06   1.047e-06    -5.942    -5.980    -0.038     (0)  
   CaHCO2[18O]+    2.063e-07   1.891e-07    -6.685    -6.723    -0.038     (0)  
   CaHC[18O]O2+    2.063e-07   1.891e-07    -6.685    -6.723    -0.038     (0)  
   CaHCO[18O]O+    2.063e-07   1.891e-07    -6.685    -6.723    -0.038     (0)  
   Ca[13C]O3       6.766e-08   6.778e-08    -7.170    -7.169     0.001     (0)  
   CaCO2[18O]      3.673e-08   3.679e-08    -7.435    -7.434     0.001     (0)  
H(0)          1.696e-39
   H2              8.482e-40   8.496e-40   -39.072   -39.071     0.001     (0)  
O(0)          1.153e-14
   O2              5.742e-15   5.752e-15   -14.241   -14.240     0.001     (0)  
   O[18O]          2.291e-17   2.295e-17   -16.640   -16.639     0.001     (0)  
[13C](-4)     0.000e+00
   [13C]H4         0.000e+00   0.000e+00  -124.278  -124.277     0.001     (0)  
[13C](4)      6.502e-05
   H[13C]O3-       5.310e-05   4.854e-05    -4.275    -4.314    -0.039     (0)  
   [13C]O2         1.031e-05   1.033e-05    -4.987    -4.986     0.001     (0)  
   CaH[13C]O3+     1.142e-06   1.047e-06    -5.942    -5.980    -0.038     (0)  
   H[13C][18O]O2-   1.059e-07   9.684e-08    -6.975    -7.014    -0.039     (0)  
   H[13C]O[18O]O-   1.059e-07   9.684e-08    -6.975    -7.014    -0.039     (0)  
   H[13C]O2[18O]-   1.059e-07   9.684e-08    -6.975    -7.014    -0.039     (0)  
   Ca[13C]O3       6.766e-08   6.778e-08    -7.170    -7.169     0.001     (0)  
   [13C]O[18O]     4.287e-08   4.294e-08    -7.368    -7.367     0.001     (0)  
   [13C]O3-2       3.420e-08   2.388e-08    -7.466    -7.622    -0.156     (0)  
   CaH[13C][18O]O2+   2.279e-09   2.088e-09    -8.642    -8.680    -0.038     (0)  
   CaH[13C]O2[18O]+   2.279e-09   2.088e-09    -8.642    -8.680    -0.038     (0)  
   CaH[13C]O[18O]O+   2.279e-09   2.088e-09    -8.642    -8.680    -0.038     (0)  
   Ca[13C]O2[18O]   4.050e-10   4.057e-10    -9.393    -9.392     0.001     (0)  
   H[13C][18O]O[18O]-   2.114e-10   1.932e-10    -9.675    -9.714    -0.039     (0)  
   H[13C][18O]2O-   2.114e-10   1.932e-10    -9.675    -9.714    -0.039     (0)  
   H[13C]O[18O]2-   2.114e-10   1.932e-10    -9.675    -9.714    -0.039     (0)  
   [13C]O2[18O]-2   2.047e-10   1.429e-10    -9.689    -9.845    -0.156     (0)  
[14C](-4)     0.000e+00
   [14C]H4         0.000e+00   0.000e+00  -134.485  -134.485     0.001     (0)  
[14C](4)      4.061e-15
   H[14C]O3-       3.321e-15   3.036e-15   -14.479   -14.518    -0.039     (0)  
   [14C]O2         6.392e-16   6.403e-16   -15.194   -15.194     0.001     (0)  
   CaH[14C]O3+     7.143e-17   6.547e-17   -16.146   -16.184    -0.038     (0)  
   H[14C][18O]O2-   6.626e-18   6.057e-18   -17.179   -17.218    -0.039     (0)  
   H[14C]O[18O]O-   6.626e-18   6.057e-18   -17.179   -17.218    -0.039     (0)  
   H[14C]O2[18O]-   6.626e-18   6.057e-18   -17.179   -17.218    -0.039     (0)  
   Ca[14C]O3       4.226e-18   4.233e-18   -17.374   -17.373     0.001     (0)  
   [14C]O[18O]     2.658e-18   2.662e-18   -17.575   -17.575     0.001     (0)  
   [14C]O3-2       2.136e-18   1.491e-18   -17.670   -17.826    -0.156     (0)  
   CaH[14C]O2[18O]+   1.425e-19   1.306e-19   -18.846   -18.884    -0.038     (0)  
   CaH[14C][18O]O2+   1.425e-19   1.306e-19   -18.846   -18.884    -0.038     (0)  
   CaH[14C]O[18O]O+   1.425e-19   1.306e-19   -18.846   -18.884    -0.038     (0)  
   Ca[14C]O2[18O]   2.530e-20   2.534e-20   -19.597   -19.596     0.001     (0)  
   H[14C]O[18O]2-   1.322e-20   1.208e-20   -19.879   -19.918    -0.039     (0)  
   H[14C][18O]2O-   1.322e-20   1.208e-20   -19.879   -19.918    -0.039     (0)  
   H[14C][18O]O[18O]-   1.322e-20   1.208e-20   -19.879   -19.918    -0.039     (0)  
   [14C]O2[18O]-2   1.279e-20   8.925e-21   -19.893   -20.049    -0.156     (0)  
[18O](-2)     1.109e-01
   H2[18O]         1.108e-01   1.991e-03    -0.955    -2.701    -1.746     (0)  
   HCO2[18O]-      9.594e-06   8.769e-06    -5.018    -5.057    -0.039     (0)  
   HC[18O]O2-      9.594e-06   8.769e-06    -5.018    -5.057    -0.039     (0)  
   HCO[18O]O-      9.594e-06   8.769e-06    -5.018    -5.057    -0.039     (0)  
   CO[18O]         3.915e-06   3.922e-06    -5.407    -5.406     0.001     (0)  
   CaHCO2[18O]+    2.063e-07   1.891e-07    -6.685    -6.723    -0.038     (0)  
   CaHC[18O]O2+    2.063e-07   1.891e-07    -6.685    -6.723    -0.038     (0)  
   CaHCO[18O]O+    2.063e-07   1.891e-07    -6.685    -6.723    -0.038     (0)  
[18O](0)      2.296e-17
   O[18O]          2.291e-17   2.295e-17   -16.640   -16.639     0.001     (0)  
   [18O]2          2.286e-20   2.290e-20   -19.641   -19.640     0.001     (0)  

------------------------------Saturation indices-------------------------------

  Phase               SI** log IAP   log K(298 K,   1 atm)

  [13C][18O]2(g)   -8.88    -10.39   -1.50  [13C][18O]2
  [13C]H4(g)     -121.42   -124.28   -2.86  [13C]H4
  [13C]O2(g)       -3.52     -4.99   -1.47  [13C]O2
  [13C]O[18O](g)   -5.90     -7.69   -1.79  [13C]O[18O]
  [14C][18O]2(g)  -19.09    -20.59   -1.50  [14C][18O]2
  [14C]H4(g)     -131.62   -134.48   -2.86  [14C]H4
  [14C]O2(g)      -13.72    -15.19   -1.47  [14C]O2
  [14C]O[18O](g)  -16.11    -17.89   -1.79  [14C]O[18O]
  [18O]2(g)       -17.35    -19.64   -2.29  [18O]2
  C[18O]2(g)       -6.92     -8.43   -1.50  C[18O]2
  Ca[13C][18O]3(s)  -9.98     -1.82    8.16  Ca[13C][18O]3
  Ca[13C]O2[18O](s)  -4.12      3.58    7.71  Ca[13C]O2[18O]
  Ca[13C]O3(s)     -1.91      6.28    8.20  Ca[13C]O3
  Ca[13C]O[18O]2(s)  -6.81      0.88    7.69  Ca[13C]O[18O]2
  Ca[14C][18O]3(s) -20.18    -12.02    8.15  Ca[14C][18O]3
  Ca[14C]O2[18O](s) -14.33     -6.62    7.70  Ca[14C]O2[18O]
  Ca[14C]O3(s)    -12.12     -3.92    8.19  Ca[14C]O3
  Ca[14C]O[18O]2(s) -17.01     -9.32    7.69  Ca[14C]O[18O]2
  CaC[18O]3(s)     -8.02      0.14    8.16  CaC[18O]3
  CaCO2[18O](s)    -2.17      5.54    7.71  CaCO2[18O]
  CaCO[18O]2(s)    -4.86      2.84    7.70  CaCO[18O]2
  Calcite           0.04     -8.44   -8.48  CaCO3
  CH4(g)         -119.46   -122.32   -2.86  CH4
  CO2(g)           -1.56     -3.03   -1.47  CO2
  CO[18O](g)       -3.94     -5.73   -1.79  CO[18O]
[...]
   CaH[13C]O2[18O]+   2.213e-09   2.030e-09    -8.655    -8.693    -0.037     (0)  
   CaH[13C]O[18O]O+   2.213e-09   2.030e-09    -8.655    -8.693    -0.037     (0)  
   CaH[13C][18O]O2+   2.213e-09   2.030e-09    -8.655    -8.693    -0.037     (0)  
   Ca[13C]O2[18O]   3.644e-10   3.650e-10    -9.438    -9.438     0.001     (0)  
   H[13C][18O]O[18O]-   2.091e-10   1.913e-10    -9.680    -9.718    -0.039     (0)  
   H[13C][18O]2O-   2.091e-10   1.913e-10    -9.680    -9.718    -0.039     (0)  
   H[13C]O[18O]2-   2.091e-10   1.913e-10    -9.680    -9.718    -0.039     (0)  
   [13C]O2[18O]-2   1.869e-10   1.310e-10    -9.728    -9.883    -0.155     (0)  
[14C](-4)     0.000e+00
   [14C]H4         0.000e+00   0.000e+00  -139.065  -139.065     0.001     (0)  
[14C](4)      4.489e-16
   H[14C]O3-       3.626e-16   3.317e-16   -15.441   -15.479    -0.039     (0)  
   [14C]O2         7.545e-17   7.558e-17   -16.122   -16.122     0.001     (0)  
   CaH[14C]O3+     7.657e-18   7.024e-18   -17.116   -17.153    -0.037     (0)  
   H[14C][18O]O2-   7.235e-19   6.619e-19   -18.141   -18.179    -0.039     (0)  
   H[14C]O[18O]O-   7.235e-19   6.619e-19   -18.141   -18.179    -0.039     (0)  
   H[14C]O2[18O]-   7.235e-19   6.619e-19   -18.141   -18.179    -0.039     (0)  
   Ca[14C]O3       4.198e-19   4.205e-19   -18.377   -18.376     0.001     (0)  
   [14C]O[18O]     3.138e-19   3.143e-19   -18.503   -18.503     0.001     (0)  
   [14C]O3-2       2.153e-19   1.509e-19   -18.667   -18.821    -0.155     (0)  
   CaH[14C]O2[18O]+   1.528e-20   1.401e-20   -19.816   -19.853    -0.037     (0)  
   CaH[14C][18O]O2+   1.528e-20   1.401e-20   -19.816   -19.853    -0.037     (0)  
   CaH[14C]O[18O]O+   1.528e-20   1.401e-20   -19.816   -19.853    -0.037     (0)  
   Ca[14C]O2[18O]   2.513e-21   2.517e-21   -20.600   -20.599     0.001     (0)  
   H[14C][18O]2O-   1.443e-21   1.321e-21   -20.841   -20.879    -0.039     (0)  
   H[14C][18O]O[18O]-   1.443e-21   1.321e-21   -20.841   -20.879    -0.039     (0)  
   H[14C]O[18O]2-   1.443e-21   1.321e-21   -20.841   -20.879    -0.039     (0)  
   [14C]O2[18O]-2   1.289e-21   9.029e-22   -20.890   -21.044    -0.155     (0)  
[18O](-2)     1.109e-01
   H2[18O]         1.108e-01   1.991e-03    -0.955    -2.701    -1.746     (0)  
   HCO2[18O]-      9.384e-06   8.586e-06    -5.028    -5.066    -0.039     (0)  
   HC[18O]O2-      9.384e-06   8.586e-06    -5.028    -5.066    -0.039     (0)  
   HCO[18O]O-      9.384e-06   8.586e-06    -5.028    -5.066    -0.039     (0)  
   CO[18O]         4.141e-06   4.148e-06    -5.383    -5.382     0.001     (0)  
   CaHCO2[18O]+    1.982e-07   1.818e-07    -6.703    -6.740    -0.037     (0)  
   CaHC[18O]O2+    1.982e-07   1.818e-07    -6.703    -6.740    -0.037     (0)  
   CaHCO[18O]O+    1.982e-07   1.818e-07    -6.703    -6.740    -0.037     (0)  
[18O](0)      1.538e-15
   O[18O]          1.535e-15   1.537e-15   -14.814   -14.813     0.001     (0)  
   [18O]2          1.531e-18   1.534e-18   -17.815   -17.814     0.001     (0)  

------------------------------Saturation indices-------------------------------

  Phase               SI** log IAP   log K(298 K,   1 atm)

  [13C][18O]2(g)   -8.85    -10.36   -1.50  [13C][18O]2
  [13C]H4(g)     -125.04   -127.90   -2.86  [13C]H4
  [13C]O2(g)       -3.49     -4.96   -1.47  [13C]O2
  [13C]O[18O](g)   -5.87     -7.66   -1.79  [13C]O[18O]
  [14C][18O]2(g)  -20.02    -21.52   -1.50  [14C][18O]2
  [14C]H4(g)     -136.20   -139.06   -2.86  [14C]H4
  [14C]O2(g)      -14.65    -16.12   -1.47  [14C]O2
  [14C]O[18O](g)  -17.03    -18.82   -1.79  [14C]O[18O]
  [18O]2(g)       -15.52    -17.81   -2.29  [18O]2
  C[18O]2(g)       -6.90     -8.40   -1.50  C[18O]2
  Ca[13C][18O]3(s) -10.02     -1.86    8.16  Ca[13C][18O]3
  Ca[13C]O2[18O](s)  -4.17      3.54    7.71  Ca[13C]O2[18O]
  Ca[13C]O3(s)     -1.96      6.24    8.20  Ca[13C]O3
  Ca[13C]O[18O]2(s)  -6.86      0.84    7.69  Ca[13C]O[18O]2
  Ca[14C][18O]3(s) -21.18    -13.03    8.15  Ca[14C][18O]3
  Ca[14C]O2[18O](s) -15.33     -7.63    7.70  Ca[14C]O2[18O]
  Ca[14C]O3(s)    -13.12     -4.93    8.19  Ca[14C]O3
  Ca[14C]O[18O]2(s) -18.02    -10.33    7.69  Ca[14C]O[18O]2
  CaC[18O]3(s)     -8.07      0.09    8.16  CaC[18O]3
  CaCO2[18O](s)    -2.22      5.49    7.71  CaCO2[18O]
  CaCO[18O]2(s)    -4.91      2.79    7.70  CaCO[18O]2
  Calcite          -0.01     -8.49   -8.48  CaCO3
  CH4(g)         -123.08   -125.94   -2.86  CH4
  CO2(g)           -1.53     -3.00   -1.47  CO2
  CO[18O](g)       -3.91     -5.70   -1.79  CO[18O]
  H2(g)           -36.83    -39.98   -3.15  H2
  H2[18O](g)       -4.21     -2.70    1.51  H2[18O]
  H2O(g)           -1.51     -0.00    1.51  H2O
  O2(g)            -9.52    -12.41   -2.89  O2
  O[18O](g)       -12.22    -15.11   -2.89  O[18O]

**For a gas, SI = log10(fugacity). Fugacity = pressure * phi / 1 atm.
  For ideal gases, phi = 1.

Reaction step 100.

Using solution 1.	
Using solid solution assemblage 1.	With [14C]
Using reaction 1.	

Reaction 1.	

	  5.000e-04 moles of the following reaction have been added:

	                 Relative
	Reactant            moles

	CaCO2[18O](s)        0.00608
	CaCO[18O]2(s)        0.00001
	CaC[18O]3(s)         0.00000
	Ca[13C]O2[18O](s)      0.00007
	Ca[13C]O3(s)         0.01101
	Ca[13C]O[18O]2(s)      0.00000
	Ca[13C][18O]3(s)      0.00000
	Calcite              0.98283

	                 Relative
	Element             moles
	C                    0.98893
	Ca                   1.00000
	O                    2.99384
	[13C]                0.01108
	[18O]                0.00618

----------------------------------User print-----------------------------------

Calcite added:             0            0   5.0000e-04 

--------------------------------Solid solutions--------------------------------


Solid solution                Component        Moles  Delta moles   Mole fract

Calcite                                     4.76e-02
                                Calcite     4.67e-02     4.91e-04     9.83e-01
                          CaCO2[18O](s)     2.88e-04     3.03e-06     6.05e-03
                          CaCO[18O]2(s)     5.91e-07     6.21e-09     1.24e-05
                           CaC[18O]3(s)     4.04e-10     4.25e-12     8.50e-09
                           Ca[13C]O3(s)     5.23e-04     5.50e-06     1.10e-02
                      Ca[13C]O2[18O](s)     3.22e-06     3.39e-08     6.77e-05
                      Ca[13C]O[18O]2(s)     6.61e-09     6.96e-11     1.39e-07
                       Ca[13C][18O]3(s)     4.52e-12     4.76e-14     9.51e-11
                           Ca[14C]O3(s)     3.58e-15     4.16e-18     7.54e-14
                      Ca[14C]O2[18O](s)     2.21e-17     2.57e-20     4.64e-16
                      Ca[14C]O[18O]2(s)     4.53e-20     5.27e-23     9.53e-19
                       Ca[14C][18O]3(s)     3.10e-23     3.60e-26     6.52e-22

--------------------------------Isotope Ratios---------------------------------

            Isotope Ratio	       Ratio	    Input Units

     R(18O)              	 1.99521e-03	        -4.9824  permil    
     R(13C)              	 1.11495e-02	        -2.7474  permil    
     R(14C)              	 7.61473e-14	         6.4757  pmc       
     R(18O) H2O(l)       	 1.99521e-03	        -4.9839  permil    
     R(18O) OH-          	 1.92124e-03	        -41.871  permil    
     R(18O) H3O+         	 2.04134e-03	         18.024  permil    
     R(18O) O2(aq)       	 1.99521e-03	        -4.9839  permil    
     R(13C) CO2(aq)      	 1.10697e-02	        -9.8844  permil    
     R(14C) CO2(aq)      	 7.50605e-14	         6.3833  pmc       
     R(18O) CO2(aq)      	 2.07917e-03	          36.89  permil    
     R(18O) HCO3-        	 1.99521e-03	        -4.9839  permil    
     R(13C) HCO3-        	 1.11660e-02	        -1.2705  permil    
     R(14C) HCO3-        	 7.63722e-14	         6.4949  pmc       
     R(18O) CO3-2        	 1.99521e-03	        -4.9839  permil    
     R(13C) CO3-2        	 1.11500e-02	        -2.7037  permil    
     R(14C) CO3-2        	 7.61531e-14	         6.4762  pmc       
     R(18O) Calcite      	 2.05265e-03	         23.663  permil    
     R(13C) Calcite      	 1.11881e-02	        0.70766  permil    
     R(14C) Calcite      	 7.66750e-14	         6.5206  pmc       

--------------------------------Isotope Alphas---------------------------------

                                                              1000ln(Alpha)
                                                         ----------------------
     Isotope Ratio                   Solution alpha      Solution        25.0 C

Alpha 18O OH-/H2O(l)                        0.96293       -37.777       -37.777
Alpha 18O H3O+/H2O(l)                        1.0231         22.86         22.86
Alpha 18O O2(aq)/H2O(l)                           1   -2.2845e-09             0
Alpha 18O CO2(aq)/H2O(l)                     1.0421        41.223        41.223
Alpha 18O HCO3-/H2O(l)                            1   -1.9984e-12             0
Alpha 13C HCO3-/CO2(aq)                      1.0087        8.6622        8.6622
Alpha 14C HCO3-/CO2(aq)                      1.0175        17.324        17.324
Alpha 18O CO3-2/H2O(l)                            1   -1.5639e-09             0
Alpha 13C CO3-2/CO2(aq)                      1.0073        7.2261        7.2261
Alpha 14C CO3-2/CO2(aq)                      1.0146        14.452        14.452
Alpha 18O Calcite/H2O(l)                     1.0288        28.383        28.383
Alpha 13C Calcite/CO2(aq)                    1.0107        10.641        10.641
Alpha 14C Calcite/CO2(aq)                    1.0215        21.282        21.282

-----------------------------Solution composition------------------------------

	Elements           Molality       Moles

	C                 5.840e-03   5.823e-03
	Ca                2.451e-03   2.444e-03
	[13C]             6.511e-05   6.492e-05
	[14C]             4.447e-16   4.434e-16
	[18O]             1.109e-01   1.106e-01

----------------------------Description of solution----------------------------

                                       pH  =   6.989      Charge balance
                                       pe  =  11.434      Adjusted to redox equilibrium
                        Activity of water  =   0.998
                 Ionic strength (mol/kgw)  =   7.138e-03
                       Mass of water (kg)  =   9.971e-01
                 Total alkalinity (eq/kg)  =   4.902e-03
                       Total CO2 (mol/kg)  =   5.840e-03
                         Temperature (°C)  =  25.00
                  Electrical balance (eq)  =   3.530e-13
 Percent error, 100*(Cat-|An|)/(Cat+|An|)  =   0.00
                               Iterations  =   2
                                  Total H  = 1.110126e+02
                                  Total O  = 5.540996e+01

----------------------------Distribution of species----------------------------

                                               Log       Log       Log    mole V
   Species          Molality    Activity  Molality  Activity     Gamma   cm³/mol

   H3O+            1.111e-07   1.027e-07    -6.954    -6.989    -0.034      0.00
   OH-             1.063e-07   9.713e-08    -6.973    -7.013    -0.039     (0)  
   H2O             5.556e+01   9.980e-01     1.745    -0.001     0.000     18.07
C(-4)         0.000e+00
   CH4             0.000e+00   0.000e+00  -125.983  -125.983     0.001     (0)  
C(4)          5.840e-03
   HCO3-           4.703e-03   4.303e-03    -2.328    -2.366    -0.039     (0)  
   CO2             9.958e-04   9.974e-04    -3.002    -3.001     0.001     (0)  
   CaHCO3+         9.932e-05   9.111e-05    -4.003    -4.040    -0.037     (0)  
   HCO2[18O]-      9.384e-06   8.586e-06    -5.028    -5.066    -0.039     (0)  
   HC[18O]O2-      9.384e-06   8.586e-06    -5.028    -5.066    -0.039     (0)  
   HCO[18O]O-      9.384e-06   8.586e-06    -5.028    -5.066    -0.039     (0)  
   CaCO3           5.461e-06   5.470e-06    -5.263    -5.262     0.001     (0)  
   CO[18O]         4.141e-06   4.148e-06    -5.383    -5.382     0.001     (0)  
   CO3-2           2.801e-06   1.962e-06    -5.553    -5.707    -0.155     (0)  
   CaHCO2[18O]+    1.982e-07   1.818e-07    -6.703    -6.740    -0.037     (0)  
   CaHCO[18O]O+    1.982e-07   1.818e-07    -6.703    -6.740    -0.037     (0)  
   CaHC[18O]O2+    1.982e-07   1.818e-07    -6.703    -6.740    -0.037     (0)  
   CaCO2[18O]      3.268e-08   3.274e-08    -7.486    -7.485     0.001     (0)  
   HC[18O]O[18O]-   1.872e-08   1.713e-08    -7.728    -7.766    -0.039     (0)  
   HCO[18O]2-      1.872e-08   1.713e-08    -7.728    -7.766    -0.039     (0)  
   HC[18O]2O-      1.872e-08   1.713e-08    -7.728    -7.766    -0.039     (0)  
   CO2[18O]-2      1.677e-08   1.175e-08    -7.776    -7.930    -0.155     (0)  
Ca            2.451e-03
   Ca+2            2.345e-03   1.659e-03    -2.630    -2.780    -0.150     (0)  
   CaHCO3+         9.932e-05   9.111e-05    -4.003    -4.040    -0.037     (0)  
   CaCO3           5.461e-06   5.470e-06    -5.263    -5.262     0.001     (0)  
   CaH[13C]O3+     1.109e-06   1.017e-06    -5.955    -5.993    -0.037     (0)  
   CaHCO2[18O]+    1.982e-07   1.818e-07    -6.703    -6.740    -0.037     (0)  
   CaHC[18O]O2+    1.982e-07   1.818e-07    -6.703    -6.740    -0.037     (0)  
   CaHCO[18O]O+    1.982e-07   1.818e-07    -6.703    -6.740    -0.037     (0)  
   Ca[13C]O3       6.088e-08   6.099e-08    -7.215    -7.215     0.001     (0)  
   CaCO2[18O]      3.268e-08   3.274e-08    -7.486    -7.485     0.001     (0)  
H(0)          2.027e-40
   H2              1.014e-40   1.015e-40   -39.994   -39.993     0.001     (0)  
O(0)          8.074e-13
   O2              4.021e-13   4.027e-13   -12.396   -12.395     0.001     (0)  
   O[18O]          1.604e-15   1.607e-15   -14.795   -14.794     0.001     (0)  
[13C](-4)     0.000e+00
   [13C]H4         0.000e+00   0.000e+00  -127.939  -127.939     0.001     (0)  
[13C](4)      6.511e-05
   H[13C]O3-       5.252e-05   4.805e-05    -4.280    -4.318    -0.039     (0)  
   [13C]O2         1.102e-05   1.104e-05    -4.958    -4.957     0.001     (0)  
   CaH[13C]O3+     1.109e-06   1.017e-06    -5.955    -5.993    -0.037     (0)  
   H[13C]O2[18O]-   1.048e-07   9.587e-08    -6.980    -7.018    -0.039     (0)  
   H[13C][18O]O2-   1.048e-07   9.587e-08    -6.980    -7.018    -0.039     (0)  
   H[13C]O[18O]O-   1.048e-07   9.587e-08    -6.980    -7.018    -0.039     (0)  
   Ca[13C]O3       6.088e-08   6.099e-08    -7.215    -7.215     0.001     (0)  
   [13C]O[18O]     4.584e-08   4.591e-08    -7.339    -7.338     0.001     (0)  
   [13C]O3-2       3.123e-08   2.188e-08    -7.505    -7.660    -0.155     (0)  
   CaH[13C]O[18O]O+   2.213e-09   2.030e-09    -8.655    -8.693    -0.037     (0)  
   CaH[13C][18O]O2+   2.213e-09   2.030e-09    -8.655    -8.693    -0.037     (0)  
   CaH[13C]O2[18O]+   2.213e-09   2.030e-09    -8.655    -8.693    -0.037     (0)  
   Ca[13C]O2[18O]   3.644e-10   3.650e-10    -9.438    -9.438     0.001     (0)  
   H[13C][18O]O[18O]-   2.091e-10   1.913e-10    -9.680    -9.718    -0.039     (0)  
   H[13C][18O]2O-   2.091e-10   1.913e-10    -9.680    -9.718    -0.039     (0)  
   H[13C]O[18O]2-   2.091e-10   1.913e-10    -9.680    -9.718    -0.039     (0)  
   [13C]O2[18O]-2   1.869e-10   1.310e-10    -9.728    -9.883    -0.155     (0)  
[14C](-4)     0.000e+00
   [14C]H4         0.000e+00   0.000e+00  -139.108  -139.107     0.001     (0)  
[14C](4)      4.447e-16
   H[14C]O3-       3.592e-16   3.286e-16   -15.445   -15.483    -0.039     (0)  
   [14C]O2         7.475e-17   7.487e-17   -16.126   -16.126     0.001     (0)  
   CaH[14C]O3+     7.585e-18   6.958e-18   -17.120   -17.157    -0.037     (0)  
   H[14C][18O]O2-   7.167e-19   6.557e-19   -18.145   -18.183    -0.039     (0)  
   H[14C]O[18O]O-   7.167e-19   6.557e-19   -18.145   -18.183    -0.039     (0)  
   H[14C]O2[18O]-   7.167e-19   6.557e-19   -18.145   -18.183    -0.039     (0)  
   Ca[14C]O3       4.158e-19   4.165e-19   -18.381   -18.380     0.001     (0)  
   [14C]O[18O]     3.108e-19   3.113e-19   -18.507   -18.507     0.001     (0)  
   [14C]O3-2       2.133e-19   1.494e-19   -18.671   -18.826    -0.155     (0)  
   CaH[14C]O2[18O]+   1.513e-20   1.388e-20   -19.820   -19.858    -0.037     (0)  
   CaH[14C][18O]O2+   1.513e-20   1.388e-20   -19.820   -19.858    -0.037     (0)  
   CaH[14C]O[18O]O+   1.513e-20   1.388e-20   -19.820   -19.858    -0.037     (0)  
   Ca[14C]O2[18O]   2.489e-21   2.493e-21   -20.604   -20.603     0.001     (0)  
   H[14C][18O]O[18O]-   1.430e-21   1.308e-21   -20.845   -20.883    -0.039     (0)  
   H[14C]O[18O]2-   1.430e-21   1.308e-21   -20.845   -20.883    -0.039     (0)  
   H[14C][18O]2O-   1.430e-21   1.308e-21   -20.845   -20.883    -0.039     (0)  
   [14C]O2[18O]-2   1.277e-21   8.945e-22   -20.894   -21.048    -0.155     (0)  
[18O](-2)     1.109e-01
   H2[18O]         1.108e-01   1.991e-03    -0.955    -2.701    -1.746     (0)  
   HCO2[18O]-      9.384e-06   8.586e-06    -5.028    -5.066    -0.039     (0)  
   HC[18O]O2-      9.384e-06   8.586e-06    -5.028    -5.066    -0.039     (0)  
   HCO[18O]O-      9.384e-06   8.586e-06    -5.028    -5.066    -0.039     (0)  
   CO[18O]         4.141e-06   4.148e-06    -5.383    -5.382     0.001     (0)  
   CaHCO2[18O]+    1.982e-07   1.818e-07    -6.703    -6.740    -0.037     (0)  
   CaHCO[18O]O+    1.982e-07   1.818e-07    -6.703    -6.740    -0.037     (0)  
   CaHC[18O]O2+    1.982e-07   1.818e-07    -6.703    -6.740    -0.037     (0)  
[18O](0)      1.608e-15
   O[18O]          1.604e-15   1.607e-15   -14.795   -14.794     0.001     (0)  
   [18O]2          1.601e-18   1.603e-18   -17.796   -17.795     0.001     (0)  

------------------------------Saturation indices-------------------------------

  Phase               SI** log IAP   log K(298 K,   1 atm)

  [13C][18O]2(g)   -8.85    -10.36   -1.50  [13C][18O]2
  [13C]H4(g)     -125.08   -127.94   -2.86  [13C]H4
  [13C]O2(g)       -3.49     -4.96   -1.47  [13C]O2
  [13C]O[18O](g)   -5.87     -7.66   -1.79  [13C]O[18O]
  [14C][18O]2(g)  -20.02    -21.53   -1.50  [14C][18O]2
  [14C]H4(g)     -136.25   -139.11   -2.86  [14C]H4
  [14C]O2(g)      -14.66    -16.13   -1.47  [14C]O2
  [14C]O[18O](g)  -17.04    -18.83   -1.79  [14C]O[18O]
  [18O]2(g)       -15.50    -17.80   -2.29  [18O]2
  C[18O]2(g)       -6.90     -8.40   -1.50  C[18O]2
  Ca[13C][18O]3(s) -10.02     -1.86    8.16  Ca[13C][18O]3
  Ca[13C]O2[18O](s)  -4.17      3.54    7.71  Ca[13C]O2[18O]
  Ca[13C]O3(s)     -1.96      6.24    8.20  Ca[13C]O3
  Ca[13C]O[18O]2(s)  -6.86      0.84    7.69  Ca[13C]O[18O]2
  Ca[14C][18O]3(s) -21.19    -13.03    8.15  Ca[14C][18O]3
  Ca[14C]O2[18O](s) -15.33     -7.63    7.70  Ca[14C]O2[18O]
  Ca[14C]O3(s)    -13.12     -4.93    8.19  Ca[14C]O3
  Ca[14C]O[18O]2(s) -18.02    -10.33    7.69  Ca[14C]O[18O]2
  CaC[18O]3(s)     -8.07      0.09    8.16  CaC[18O]3
  CaCO2[18O](s)    -2.22      5.49    7.71  CaCO2[18O]
  CaCO[18O]2(s)    -4.91      2.79    7.70  CaCO[18O]2
  Calcite          -0.01     -8.49   -8.48  CaCO3
  CH4(g)         -123.12   -125.98   -2.86  CH4
  CO2(g)           -1.53     -3.00   -1.47  CO2
  CO[18O](g)       -3.91     -5.70   -1.79  CO[18O]
  H2(g)           -36.84    -39.99   -3.15  H2
  H2[18O](g)       -4.21     -2.70    1.51  H2[18O]
  H2O(g)           -1.51     -0.00    1.51  H2O
  O2(g)            -9.50    -12.39   -2.89  O2
  O[18O](g)       -12.20    -15.09   -2.89  O[18O]

**For a gas, SI = log10(fugacity). Fugacity = pressure * phi / 1 atm.
  For ideal gases, phi = 1.

------------------
End of simulation.
------------------

--------------------------------------
Reading input data for simulation 114.
--------------------------------------

-------------------------------
End of Run after 0.967 Seconds.
-------------------------------

