   Input file: ../examples/ex3
  Output file: ex3.out
Database file: ../database/phreeqc.dat

------------------
Reading data base.
------------------

	SOLUTION_MASTER_SPECIES
	SOLUTION_SPECIES
	PHASES
	EXCHANGE_MASTER_SPECIES
	EXCHANGE_SPECIES
	SURFACE_MASTER_SPECIES
	SURFACE_SPECIES
	RATES
	END
------------------------------------
Reading input data for simulation 1.
------------------------------------

	TITLE Example 3, part A.--Calcite equilibrium at log Pco2 = -2.0 and 25C.        
	SOLUTION 1  Pure water
	        pH      7.0
	        temp    25.0
	EQUILIBRIUM_PHASES
	        CO2(g)          -2.0    
	        Calcite         0.0
	SAVE solution 1
	END
-----
TITLE
-----

 Example 3, part A.--Calcite equilibrium at log Pco2 = -2.0 and 25C.        

-------------------------------------------
Beginning of initial solution calculations.
-------------------------------------------

Initial solution 1.	Pure water

-----------------------------Solution composition------------------------------

	Elements           Molality       Moles

	Pure water     

----------------------------Description of solution----------------------------

                                       pH  =   7.000    
                                       pe  =   4.000    
       Specific Conductance (uS/cm, 25 oC) = 0
                          Density (g/cm3)  =   0.99704
                               Volume (L)  =   1.00297
                        Activity of water  =   1.000
                           Ionic strength  =   1.002e-07
                       Mass of water (kg)  =   1.000e+00
                 Total alkalinity (eq/kg)  =   2.208e-10
                    Total carbon (mol/kg)  =   0.000e+00
                       Total CO2 (mol/kg)  =   0.000e+00
                      Temperature (deg C)  =  25.00
                  Electrical balance (eq)  =  -2.208e-10
 Percent error, 100*(Cat-|An|)/(Cat+|An|)  =  -0.11
                               Iterations  =   0
                                  Total H  = 1.110124e+02
                                  Total O  = 5.550622e+01

----------------------------Distribution of species----------------------------

                                               Log       Log       Log    mole V
   Species          Molality    Activity  Molality  Activity     Gamma   cm3/mol

   OH-             1.003e-07   1.002e-07    -6.999    -6.999    -0.000     -4.11
   H+              1.001e-07   1.000e-07    -7.000    -7.000    -0.000      0.00
   H2O             5.551e+01   1.000e+00     1.744     0.000     0.000     18.07
H(0)          1.416e-25
   H2              7.079e-26   7.079e-26   -25.150   -25.150     0.000     28.61
O(0)          0.000e+00
   O2              0.000e+00   0.000e+00   -42.080   -42.080     0.000     30.40

------------------------------Saturation indices-------------------------------

	Phase               SI   log IAP   log K(298 K,   1 atm)

	H2(g)           -22.05    -25.15   -3.10  H2
	H2O(g)           -1.50      0.00    1.50  H2O
	O2(g)           -39.19    -42.08   -2.89  O2


-----------------------------------------
Beginning of batch-reaction calculations.
-----------------------------------------

Reaction step 1.

Using solution 1.	Pure water
Using pure phase assemblage 1.	

-------------------------------Phase assemblage--------------------------------

                                                      Moles in assemblage
Phase               SI  log IAP  log K(T, P)   Initial       Final       Delta

CO2(g)           -2.00    -3.46     -1.46    1.000e+01   9.998e+00  -1.993e-03
Calcite           0.00    -8.48     -8.48    1.000e+01   9.998e+00  -1.657e-03

-----------------------------Solution composition------------------------------

	Elements           Molality       Moles

	C                 3.650e-03   3.650e-03
	Ca                1.657e-03   1.657e-03

----------------------------Description of solution----------------------------

                                       pH  =   7.292      Charge balance
                                       pe  =  -1.809      Adjusted to redox equilibrium
       Specific Conductance (uS/cm, 25 oC) = 308
                          Density (g/cm3)  =   0.99726
                               Volume (L)  =   1.00318
                        Activity of water  =   1.000
                           Ionic strength  =   4.858e-03
                       Mass of water (kg)  =   1.000e+00
                 Total alkalinity (eq/kg)  =   3.313e-03
                       Total CO2 (mol/kg)  =   3.650e-03
                      Temperature (deg C)  =  25.00
                  Electrical balance (eq)  =  -2.412e-10
 Percent error, 100*(Cat-|An|)/(Cat+|An|)  =  -0.00
                               Iterations  =  16
                                  Total H  = 1.110124e+02
                                  Total O  = 5.551517e+01

----------------------------Distribution of species----------------------------

                                               Log       Log       Log    mole V
   Species          Molality    Activity  Molality  Activity     Gamma   cm3/mol

   OH-             2.116e-07   1.962e-07    -6.674    -6.707    -0.033     -4.04
   H+              5.467e-08   5.109e-08    -7.262    -7.292    -0.029      0.00
   H2O             5.551e+01   9.999e-01     1.744    -0.000     0.000     18.07
C(-4)         1.165e-23
   CH4             1.165e-23   1.166e-23   -22.934   -22.933     0.000     32.22
C(4)          3.650e-03
   HCO3-           3.245e-03   3.017e-03    -2.489    -2.520    -0.032     24.63
   CO2             3.462e-04   3.466e-04    -3.461    -3.460     0.000     30.26
   CaHCO3+         4.947e-05   4.604e-05    -4.306    -4.337    -0.031      9.71
   CaCO3           5.559e-06   5.565e-06    -5.255    -5.255     0.000    -14.60
   CO3-2           3.707e-06   2.770e-06    -5.431    -5.558    -0.127     -3.84
Ca            1.657e-03
   Ca+2            1.602e-03   1.196e-03    -2.795    -2.922    -0.127    -17.33
   CaHCO3+         4.947e-05   4.604e-05    -4.306    -4.337    -0.031      9.71
   CaCO3           5.559e-06   5.565e-06    -5.255    -5.255     0.000    -14.60
   CaOH+           4.175e-09   3.885e-09    -8.379    -8.411    -0.031     (0)  
H(0)          1.530e-14
   H2              7.650e-15   7.659e-15   -14.116   -14.116     0.000     28.61
O(0)          0.000e+00
   O2              0.000e+00   0.000e+00   -64.149   -64.148     0.000     30.40

------------------------------Saturation indices-------------------------------

	Phase               SI   log IAP   log K(298 K,   1 atm)

	Aragonite        -0.14     -8.48   -8.34  CaCO3
	Calcite           0.00     -8.48   -8.48  CaCO3
	CH4(g)          -20.09    -22.93   -2.84  CH4
	CO2(g)           -2.00     -3.46   -1.46  CO2	 Pressure   0.0 atm, phi 1.000.
	H2(g)           -11.01    -14.12   -3.10  H2
	H2O(g)           -1.50     -0.00    1.50  H2O
	O2(g)           -61.26    -64.15   -2.89  O2


------------------
End of simulation.
------------------

------------------------------------
Reading input data for simulation 2.
------------------------------------

	TITLE Example 3, part B.--Definition of seawater.
	SOLUTION 2  Seawater
	        units   ppm
	        pH      8.22
	        pe      8.451
	        density 1.023
	        temp    25.0
	        Ca              412.3
	        Mg              1291.8
	        Na              10768.0
	        K               399.1
	        Si              4.28
	        Cl              19353.0
	        Alkalinity      141.682 as HCO3
	        S(6)            2712.0
	END
-----
TITLE
-----

 Example 3, part B.--Definition of seawater.

-------------------------------------------
Beginning of initial solution calculations.
-------------------------------------------

Initial solution 2.	Seawater

-----------------------------Solution composition------------------------------

	Elements           Molality       Moles

	Alkalinity        2.406e-03   2.406e-03
	Ca                1.066e-02   1.066e-02
	Cl                5.657e-01   5.657e-01
	K                 1.058e-02   1.058e-02
	Mg                5.507e-02   5.507e-02
	Na                4.854e-01   4.854e-01
	S(6)              2.926e-02   2.926e-02
	Si                7.382e-05   7.382e-05

----------------------------Description of solution----------------------------

                                       pH  =   8.220    
                                       pe  =   8.451    
       Specific Conductance (uS/cm, 25 oC) = 52753
                          Density (g/cm3)  =   1.02324
                               Volume (L)  =   1.01474
                        Activity of water  =   0.981
                           Ionic strength  =   6.747e-01
                       Mass of water (kg)  =   1.000e+00
                    Total carbon (mol/kg)  =   2.187e-03
                       Total CO2 (mol/kg)  =   2.187e-03
                      Temperature (deg C)  =  25.00
                  Electrical balance (eq)  =   7.967e-04
 Percent error, 100*(Cat-|An|)/(Cat+|An|)  =   0.07
                               Iterations  =   7
                                  Total H  = 1.110147e+02
                                  Total O  = 5.563011e+01

----------------------------Distribution of species----------------------------

                                               Log       Log       Log    mole V
   Species          Molality    Activity  Molality  Activity     Gamma   cm3/mol

   OH-             2.679e-06   1.631e-06    -5.572    -5.788    -0.215     -2.25
   H+              7.984e-09   6.026e-09    -8.098    -8.220    -0.122      0.00
   H2O             5.551e+01   9.806e-01     1.744    -0.009     0.000     18.07
C(4)          2.187e-03
   HCO3-           1.405e-03   9.486e-04    -2.852    -3.023    -0.171     26.82
   NaHCO3          2.746e-04   3.207e-04    -3.561    -3.494     0.067     29.13
   MgHCO3+         2.422e-04   1.523e-04    -3.616    -3.817    -0.201      6.22
   MgCO3           8.275e-05   9.666e-05    -4.082    -4.015     0.067    -17.09
   NaCO3-          6.882e-05   4.648e-05    -4.162    -4.333    -0.171      1.31
   CaHCO3+         4.214e-05   2.915e-05    -4.375    -4.535    -0.160     10.42
   CO3-2           3.550e-05   7.383e-06    -4.450    -5.132    -0.682     -0.70
   CaCO3           2.558e-05   2.988e-05    -4.592    -4.525     0.067    -14.60
   CO2             1.122e-05   1.311e-05    -4.950    -4.883     0.067     30.26
Ca            1.066e-02
   Ca+2            9.635e-03   2.409e-03    -2.016    -2.618    -0.602    -16.37
   CaSO4           9.583e-04   1.119e-03    -3.018    -2.951     0.067      7.50
   CaHCO3+         4.214e-05   2.915e-05    -4.375    -4.535    -0.160     10.42
   CaCO3           2.558e-05   2.988e-05    -4.592    -4.525     0.067    -14.60
   CaOH+           9.403e-08   6.506e-08    -7.027    -7.187    -0.160     (0)  
   CaHSO4+         5.936e-11   4.434e-11   -10.226   -10.353    -0.127     (0)  
Cl            5.657e-01
   Cl-             5.657e-01   3.526e-01    -0.247    -0.453    -0.205     18.78
H(0)          5.515e-37
   H2              2.758e-37   3.221e-37   -36.559   -36.492     0.067     28.61
K             1.058e-02
   K+              1.040e-02   6.483e-03    -1.983    -2.188    -0.205      9.75
   KSO4-           1.763e-04   1.190e-04    -3.754    -3.924    -0.171     (0)  
Mg            5.507e-02
   Mg+2            4.753e-02   1.372e-02    -1.323    -1.863    -0.540    -20.41
   MgSO4           7.195e-03   8.404e-03    -2.143    -2.075     0.067      5.84
   MgHCO3+         2.422e-04   1.523e-04    -3.616    -3.817    -0.201      6.22
   MgCO3           8.275e-05   9.666e-05    -4.082    -4.015     0.067    -17.09
   MgOH+           1.151e-05   8.106e-06    -4.939    -5.091    -0.152     (0)  
Na            4.854e-01
   Na+             4.785e-01   3.381e-01    -0.320    -0.471    -0.151     -0.54
   NaSO4-          6.557e-03   4.428e-03    -2.183    -2.354    -0.171     31.16
   NaHCO3          2.746e-04   3.207e-04    -3.561    -3.494     0.067     29.13
   NaCO3-          6.882e-05   4.648e-05    -4.162    -4.333    -0.171      1.31
O(0)          6.615e-20
   O2              3.307e-20   3.863e-20   -19.481   -19.413     0.067     30.40
S(6)          2.926e-02
   SO4-2           1.437e-02   2.613e-03    -1.842    -2.583    -0.740     13.67
   MgSO4           7.195e-03   8.404e-03    -2.143    -2.075     0.067      5.84
   NaSO4-          6.557e-03   4.428e-03    -2.183    -2.354    -0.171     31.16
   CaSO4           9.583e-04   1.119e-03    -3.018    -2.951     0.067      7.50
   KSO4-           1.763e-04   1.190e-04    -3.754    -3.924    -0.171     (0)  
   HSO4-           2.367e-09   1.531e-09    -8.626    -8.815    -0.189     35.91
   CaHSO4+         5.936e-11   4.434e-11   -10.226   -10.353    -0.127     (0)  
Si            7.382e-05
   H4SiO4          7.061e-05   8.248e-05    -4.151    -4.084     0.067     52.08
   H3SiO4-         3.210e-06   2.018e-06    -5.494    -5.695    -0.201     28.72
   H2SiO4-2        1.096e-10   2.279e-11    -9.960   -10.642    -0.682     (0)  

------------------------------Saturation indices-------------------------------

	Phase               SI   log IAP   log K(298 K,   1 atm)

	Anhydrite        -0.96     -5.20   -4.24  CaSO4
	Aragonite         0.59     -7.75   -8.34  CaCO3
	Calcite           0.73     -7.75   -8.48  CaCO3
	Chalcedony       -0.52     -4.07   -3.55  SiO2
	Chrysotile        3.36     35.56   32.20  Mg3Si2O5(OH)4
	CO2(g)           -3.42     -4.88   -1.46  CO2
	Dolomite          2.35    -14.74  -17.09  CaMg(CO3)2
	Gypsum           -0.64     -5.22   -4.58  CaSO4:2H2O
	H2(g)           -33.39    -36.49   -3.10  H2
	H2O(g)           -1.51     -0.01    1.50  H2O
	Halite           -2.51     -0.92    1.58  NaCl
	O2(g)           -16.52    -19.41   -2.89  O2
	Quartz           -0.09     -4.07   -3.98  SiO2
	Sepiolite         1.15     16.91   15.76  Mg2Si3O7.5OH:3H2O
	Sepiolite(d)     -1.75     16.91   18.66  Mg2Si3O7.5OH:3H2O
	SiO2(a)          -1.35     -4.07   -2.71  SiO2
	Talc              6.03     27.43   21.40  Mg3Si4O10(OH)2


------------------
End of simulation.
------------------

------------------------------------
Reading input data for simulation 3.
------------------------------------

	TITLE Example 3, part C.--Mix 70% groundwater, 30% seawater.
	MIX 1
	        1      0.7
	        2      0.3
	SAVE solution   3
	END
-----
TITLE
-----

 Example 3, part C.--Mix 70% groundwater, 30% seawater.

-----------------------------------------
Beginning of batch-reaction calculations.
-----------------------------------------

Reaction step 1.

Using mix 1.	

Mixture 1.	

	  7.000e-01 Solution 1	Solution after simulation 1.                           
	  3.000e-01 Solution 2	Seawater                                               

-----------------------------Solution composition------------------------------

	Elements           Molality       Moles

	C                 3.211e-03   3.211e-03
	Ca                4.358e-03   4.358e-03
	Cl                1.697e-01   1.697e-01
	K                 3.173e-03   3.173e-03
	Mg                1.652e-02   1.652e-02
	Na                1.456e-01   1.456e-01
	S                 8.777e-03   8.777e-03
	Si                2.215e-05   2.215e-05

----------------------------Description of solution----------------------------

                                       pH  =   7.329      Charge balance
                                       pe  =  -1.681      Adjusted to redox equilibrium
       Specific Conductance (uS/cm, 25 oC) = 18673
                          Density (g/cm3)  =   1.00524
                               Volume (L)  =   1.00653
                        Activity of water  =   0.994
                           Ionic strength  =   2.087e-01
                       Mass of water (kg)  =   1.000e+00
                 Total alkalinity (eq/kg)  =   3.041e-03
                       Total CO2 (mol/kg)  =   3.211e-03
                      Temperature (deg C)  =  25.00
                  Electrical balance (eq)  =   2.390e-04
 Percent error, 100*(Cat-|An|)/(Cat+|An|)  =   0.06
                               Iterations  =  11
                                  Total H  = 1.110131e+02
                                  Total O  = 5.554965e+01

----------------------------Distribution of species----------------------------

                                               Log       Log       Log    mole V
   Species          Molality    Activity  Molality  Activity     Gamma   cm3/mol

   OH-             3.023e-07   2.127e-07    -6.520    -6.672    -0.153     -3.34
   H+              5.886e-08   4.685e-08    -7.230    -7.329    -0.099      0.00
   H2O             5.551e+01   9.941e-01     1.744    -0.003     0.000     18.07
C(-4)         3.138e-25
   CH4             3.138e-25   3.292e-25   -24.503   -24.483     0.021     32.22
C(4)          3.211e-03
   HCO3-           2.597e-03   1.931e-03    -2.585    -2.714    -0.129     25.45
   NaHCO3          1.969e-04   2.066e-04    -3.706    -3.685     0.021     29.13
   CO2             1.950e-04   2.046e-04    -3.710    -3.689     0.021     30.26
   MgHCO3+         1.567e-04   1.121e-04    -3.805    -3.951    -0.146      5.88
   CaHCO3+         4.124e-05   3.110e-05    -4.385    -4.507    -0.123     10.07
   MgCO3           8.719e-06   9.148e-06    -5.060    -5.039     0.021    -17.09
   CO3-2           6.325e-06   1.933e-06    -5.199    -5.714    -0.515     -2.28
   NaCO3-          5.178e-06   3.850e-06    -5.286    -5.415    -0.129     -1.41
   CaCO3           3.907e-06   4.099e-06    -5.408    -5.387     0.021    -14.60
Ca            4.358e-03
   Ca+2            3.974e-03   1.262e-03    -2.401    -2.899    -0.498    -16.72
   CaSO4           3.391e-04   3.558e-04    -3.470    -3.449     0.021      7.50
   CaHCO3+         4.124e-05   3.110e-05    -4.385    -4.507    -0.123     10.07
   CaCO3           3.907e-06   4.099e-06    -5.408    -5.387     0.021    -14.60
   CaOH+           5.895e-09   4.445e-09    -8.230    -8.352    -0.123     (0)  
   CaHSO4+         1.471e-10   1.096e-10    -9.832    -9.960    -0.128     (0)  
Cl            1.697e-01
   Cl-             1.697e-01   1.203e-01    -0.770    -0.920    -0.150     18.46
H(0)          6.807e-15
   H2              3.403e-15   3.571e-15   -14.468   -14.447     0.021     28.61
K             3.173e-03
   K+              3.140e-03   2.225e-03    -2.503    -2.653    -0.150      9.36
   KSO4-           3.332e-05   2.478e-05    -4.477    -4.606    -0.129     (0)  
Mg            1.652e-02
   Mg+2            1.460e-02   4.960e-03    -1.836    -2.305    -0.469    -20.79
   MgSO4           1.756e-03   1.843e-03    -2.755    -2.735     0.021      5.84
   MgHCO3+         1.567e-04   1.121e-04    -3.805    -3.951    -0.146      5.88
   MgCO3           8.719e-06   9.148e-06    -5.060    -5.039     0.021    -17.09
   MgOH+           5.013e-07   3.821e-07    -6.300    -6.418    -0.118     (0)  
Na            1.456e-01
   Na+             1.443e-01   1.070e-01    -0.841    -0.971    -0.130     -0.84
   NaSO4-          1.143e-03   8.497e-04    -2.942    -3.071    -0.129     28.65
   NaHCO3          1.969e-04   2.066e-04    -3.706    -3.685     0.021     29.13
   NaCO3-          5.178e-06   3.850e-06    -5.286    -5.415    -0.129     -1.41
O(0)          0.000e+00
   O2              0.000e+00   0.000e+00   -63.512   -63.491     0.021     30.40
S(-2)         3.984e-22
   HS-             3.125e-22   2.199e-22   -21.505   -21.658    -0.153     21.00
   H2S             8.583e-23   9.006e-23   -22.066   -22.045     0.021     37.16
   S-2             1.932e-27   5.668e-28   -26.714   -27.247    -0.532     (0)  
S(6)          8.777e-03
   SO4-2           5.506e-03   1.585e-03    -2.259    -2.800    -0.541     13.64
   MgSO4           1.756e-03   1.843e-03    -2.755    -2.735     0.021      5.84
   NaSO4-          1.143e-03   8.497e-04    -2.942    -3.071    -0.129     28.65
   CaSO4           3.391e-04   3.558e-04    -3.470    -3.449     0.021      7.50
   KSO4-           3.332e-05   2.478e-05    -4.477    -4.606    -0.129     (0)  
   HSO4-           9.944e-09   7.219e-09    -8.002    -8.142    -0.139     35.57
   CaHSO4+         1.471e-10   1.096e-10    -9.832    -9.960    -0.128     (0)  
Si            2.215e-05
   H4SiO4          2.205e-05   2.313e-05    -4.657    -4.636     0.021     52.08
   H3SiO4-         1.018e-07   7.280e-08    -6.992    -7.138    -0.146     28.37
   H2SiO4-2        3.459e-13   1.057e-13   -12.461   -12.976    -0.515     (0)  

------------------------------Saturation indices-------------------------------

	Phase               SI   log IAP   log K(298 K,   1 atm)

	Anhydrite        -1.46     -5.70   -4.24  CaSO4
	Aragonite        -0.28     -8.61   -8.34  CaCO3
	Calcite          -0.13     -8.61   -8.48  CaCO3
	CH4(g)          -21.64    -24.48   -2.84  CH4
	Chalcedony       -1.08     -4.63   -3.55  SiO2
	Chrysotile       -4.41     27.79   32.20  Mg3Si2O5(OH)4
	CO2(g)           -2.23     -3.69   -1.46  CO2
	Dolomite          0.46    -16.63  -17.09  CaMg(CO3)2
	Gypsum           -1.12     -5.70   -4.58  CaSO4:2H2O
	H2(g)           -11.35    -14.45   -3.10  H2
	H2O(g)           -1.51     -0.00    1.50  H2O
	H2S(g)          -20.99    -28.99   -7.99  H2S
	Halite           -3.47     -1.89    1.58  NaCl
	O2(g)           -60.60    -63.49   -2.89  O2
	Quartz           -0.65     -4.63   -3.98  SiO2
	Sepiolite        -4.96     10.80   15.76  Mg2Si3O7.5OH:3H2O
	Sepiolite(d)     -7.86     10.80   18.66  Mg2Si3O7.5OH:3H2O
	SiO2(a)          -1.92     -4.63   -2.71  SiO2
	Sulfur          -15.63    -10.75    4.88  S
	Talc             -2.87     18.53   21.40  Mg3Si4O10(OH)2


------------------
End of simulation.
------------------

------------------------------------
Reading input data for simulation 4.
------------------------------------

	TITLE Example 3, part D.--Equilibrate mixture with calcite and dolomite.
	EQUILIBRIUM_PHASES 1
	        Calcite         0.0
	        Dolomite        0.0
	USE solution 3
	END
-----
TITLE
-----

 Example 3, part D.--Equilibrate mixture with calcite and dolomite.

-----------------------------------------
Beginning of batch-reaction calculations.
-----------------------------------------

Reaction step 1.

Using solution 3.	Solution after simulation 3.
Using pure phase assemblage 1.	

-------------------------------Phase assemblage--------------------------------

                                                      Moles in assemblage
Phase               SI  log IAP  log K(T, P)   Initial       Final       Delta

Calcite           0.00    -8.48     -8.48    1.000e+01   9.984e+00  -1.560e-02
Dolomite          0.00   -17.09    -17.09    1.000e+01   1.001e+01   7.875e-03

-----------------------------Solution composition------------------------------

	Elements           Molality       Moles

	C                 3.065e-03   3.065e-03
	Ca                1.209e-02   1.209e-02
	Cl                1.697e-01   1.697e-01
	K                 3.173e-03   3.173e-03
	Mg                8.645e-03   8.645e-03
	Na                1.456e-01   1.456e-01
	S                 8.777e-03   8.777e-03
	Si                2.215e-05   2.215e-05

----------------------------Description of solution----------------------------

                                       pH  =   7.060      Charge balance
                                       pe  =  10.778      Adjusted to redox equilibrium
       Specific Conductance (uS/cm, 25 oC) = 18726
                          Density (g/cm3)  =   1.00531
                               Volume (L)  =   1.00655
                        Activity of water  =   0.994
                           Ionic strength  =   2.090e-01
                       Mass of water (kg)  =   1.000e+00
                 Total alkalinity (eq/kg)  =   2.749e-03
                       Total CO2 (mol/kg)  =   3.065e-03
                      Temperature (deg C)  =  25.00
                  Electrical balance (eq)  =   2.390e-04
 Percent error, 100*(Cat-|An|)/(Cat+|An|)  =   0.06
                               Iterations  =  13
                                  Total H  = 1.110131e+02
                                  Total O  = 5.554921e+01

----------------------------Distribution of species----------------------------

                                               Log       Log       Log    mole V
   Species          Molality    Activity  Molality  Activity     Gamma   cm3/mol

   OH-             1.628e-07   1.145e-07    -6.788    -6.941    -0.153     -3.34
   H+              1.093e-07   8.701e-08    -6.961    -7.060    -0.099      0.00
   H2O             5.551e+01   9.941e-01     1.744    -0.003     0.000     18.07
C(-4)         0.000e+00
   CH4             0.000e+00   0.000e+00  -121.791  -121.771     0.021     32.22
C(4)          3.065e-03
   HCO3-           2.364e-03   1.758e-03    -2.626    -2.755    -0.129     25.45
   CO2             3.297e-04   3.459e-04    -3.482    -3.461     0.021     30.26
   NaHCO3          1.792e-04   1.880e-04    -3.747    -3.726     0.021     29.13
   CaHCO3+         1.040e-04   7.842e-05    -3.983    -4.106    -0.123     10.08
   MgHCO3+         7.450e-05   5.327e-05    -4.128    -4.274    -0.146      5.88
   CaCO3           5.303e-06   5.565e-06    -5.275    -5.255     0.021    -14.60
   CO3-2           3.102e-06   9.474e-07    -5.508    -6.023    -0.515     -2.28
   NaCO3-          2.538e-06   1.887e-06    -5.596    -5.724    -0.129     -1.41
   MgCO3           2.231e-06   2.341e-06    -5.651    -5.631     0.021    -17.09
Ca            1.209e-02
   Ca+2            1.101e-02   3.497e-03    -1.958    -2.456    -0.498    -16.72
   CaSO4           9.651e-04   1.013e-03    -3.015    -2.995     0.021      7.50
   CaHCO3+         1.040e-04   7.842e-05    -3.983    -4.106    -0.123     10.08
   CaCO3           5.303e-06   5.565e-06    -5.275    -5.255     0.021    -14.60
   CaOH+           8.793e-09   6.630e-09    -8.056    -8.179    -0.123     (0)  
   CaHSO4+         7.778e-10   5.792e-10    -9.109    -9.237    -0.128     (0)  
Cl            1.697e-01
   Cl-             1.697e-01   1.202e-01    -0.770    -0.920    -0.150     18.46
H(0)          2.844e-39
   H2              1.422e-39   1.492e-39   -38.847   -38.826     0.021     28.61
K             3.173e-03
   K+              3.139e-03   2.224e-03    -2.503    -2.653    -0.150      9.36
   KSO4-           3.423e-05   2.545e-05    -4.466    -4.594    -0.129     (0)  
Mg            8.645e-03
   Mg+2            7.626e-03   2.590e-03    -2.118    -2.587    -0.469    -20.79
   MgSO4           9.424e-04   9.889e-04    -3.026    -3.005     0.021      5.84
   MgHCO3+         7.450e-05   5.327e-05    -4.128    -4.274    -0.146      5.88
   MgCO3           2.231e-06   2.341e-06    -5.651    -5.631     0.021    -17.09
   MgOH+           1.410e-07   1.074e-07    -6.851    -6.969    -0.118     (0)  
Na            1.456e-01
   Na+             1.443e-01   1.069e-01    -0.841    -0.971    -0.130     -0.84
   NaSO4-          1.174e-03   8.730e-04    -2.930    -3.059    -0.129     28.65
   NaHCO3          1.792e-04   1.880e-04    -3.747    -3.726     0.021     29.13
   NaCO3-          2.538e-06   1.887e-06    -5.596    -5.724    -0.129     -1.41
O(0)          3.527e-15
   O2              1.764e-15   1.851e-15   -14.754   -14.733     0.021     30.40
S(-2)         0.000e+00
   HS-             0.000e+00   0.000e+00  -118.740  -118.893    -0.153     21.00
   H2S             0.000e+00   0.000e+00  -119.033  -119.012     0.021     37.16
   S-2             0.000e+00   0.000e+00  -124.218  -124.751    -0.533     (0)  
S(6)          8.777e-03
   SO4-2           5.661e-03   1.629e-03    -2.247    -2.788    -0.541     13.64
   NaSO4-          1.174e-03   8.730e-04    -2.930    -3.059    -0.129     28.65
   CaSO4           9.651e-04   1.013e-03    -3.015    -2.995     0.021      7.50
   MgSO4           9.424e-04   9.889e-04    -3.026    -3.005     0.021      5.84
   KSO4-           3.423e-05   2.545e-05    -4.466    -4.594    -0.129     (0)  
   HSO4-           1.898e-08   1.378e-08    -7.722    -7.861    -0.139     35.57
   CaHSO4+         7.778e-10   5.792e-10    -9.109    -9.237    -0.128     (0)  
Si            2.215e-05
   H4SiO4          2.209e-05   2.318e-05    -4.656    -4.635     0.021     52.08
   H3SiO4-         5.494e-08   3.928e-08    -7.260    -7.406    -0.146     28.38
   H2SiO4-2        1.005e-13   3.071e-14   -12.998   -13.513    -0.515     (0)  

------------------------------Saturation indices-------------------------------

	Phase               SI   log IAP   log K(298 K,   1 atm)

	Anhydrite        -1.00     -5.24   -4.24  CaSO4
	Aragonite        -0.14     -8.48   -8.34  CaCO3
	Calcite           0.00     -8.48   -8.48  CaCO3
	CH4(g)         -118.93   -121.77   -2.84  CH4
	Chalcedony       -1.08     -4.63   -3.55  SiO2
	Chrysotile       -6.87     25.33   32.20  Mg3Si2O5(OH)4
	CO2(g)           -2.00     -3.46   -1.46  CO2
	Dolomite          0.00    -17.09  -17.09  CaMg(CO3)2
	Gypsum           -0.67     -5.25   -4.58  CaSO4:2H2O
	H2(g)           -35.73    -38.83   -3.10  H2
	H2O(g)           -1.51     -0.00    1.50  H2O
	H2S(g)         -117.96   -125.95   -7.99  H2S
	Halite           -3.47     -1.89    1.58  NaCl
	O2(g)           -11.84    -14.73   -2.89  O2
	Quartz           -0.65     -4.63   -3.98  SiO2
	Sepiolite        -6.59      9.17   15.76  Mg2Si3O7.5OH:3H2O
	Sepiolite(d)     -9.49      9.17   18.66  Mg2Si3O7.5OH:3H2O
	SiO2(a)          -1.92     -4.63   -2.71  SiO2
	Sulfur          -88.22    -83.34    4.88  S
	Talc             -5.33     16.07   21.40  Mg3Si4O10(OH)2


------------------
End of simulation.
------------------

------------------------------------
Reading input data for simulation 5.
------------------------------------

	TITLE Example 3, part E.--Equilibrate mixture with calcite only.
	EQUILIBRIUM_PHASES 2
	        Calcite         0.0
	USE solution 3
	END
-----
TITLE
-----

 Example 3, part E.--Equilibrate mixture with calcite only.

-----------------------------------------
Beginning of batch-reaction calculations.
-----------------------------------------

Reaction step 1.

Using solution 3.	Solution after simulation 3.
Using pure phase assemblage 2.	

-------------------------------Phase assemblage--------------------------------

                                                      Moles in assemblage
Phase               SI  log IAP  log K(T, P)   Initial       Final       Delta

Calcite           0.00    -8.48     -8.48    1.000e+01   1.000e+01  -5.027e-05

-----------------------------Solution composition------------------------------

	Elements           Molality       Moles

	C                 3.261e-03   3.261e-03
	Ca                4.408e-03   4.408e-03
	Cl                1.697e-01   1.697e-01
	K                 3.173e-03   3.173e-03
	Mg                1.652e-02   1.652e-02
	Na                1.456e-01   1.456e-01
	S                 8.777e-03   8.777e-03
	Si                2.215e-05   2.215e-05

----------------------------Description of solution----------------------------

                                       pH  =   7.445      Charge balance
                                       pe  =  10.394      Adjusted to redox equilibrium
       Specific Conductance (uS/cm, 25 oC) = 18678
                          Density (g/cm3)  =   1.00524
                               Volume (L)  =   1.00653
                        Activity of water  =   0.994
                           Ionic strength  =   2.088e-01
                       Mass of water (kg)  =   1.000e+00
                 Total alkalinity (eq/kg)  =   3.142e-03
                       Total CO2 (mol/kg)  =   3.261e-03
                      Temperature (deg C)  =  25.00
                  Electrical balance (eq)  =   2.390e-04
 Percent error, 100*(Cat-|An|)/(Cat+|An|)  =   0.06
                               Iterations  =  12
                                  Total H  = 1.110131e+02
                                  Total O  = 5.554980e+01

----------------------------Distribution of species----------------------------

                                               Log       Log       Log    mole V
   Species          Molality    Activity  Molality  Activity     Gamma   cm3/mol

   OH-             3.951e-07   2.779e-07    -6.403    -6.556    -0.153     -3.34
   H+              4.504e-08   3.585e-08    -7.346    -7.445    -0.099      0.00
   H2O             5.551e+01   9.941e-01     1.744    -0.003     0.000     18.07
C(-4)         0.000e+00
   CH4             0.000e+00   0.000e+00  -122.135  -122.115     0.021     32.22
C(4)          3.261e-03
   HCO3-           2.669e-03   1.985e-03    -2.574    -2.702    -0.129     25.45
   NaHCO3          2.023e-04   2.123e-04    -3.694    -3.673     0.021     29.13
   MgHCO3+         1.610e-04   1.151e-04    -3.793    -3.939    -0.146      5.88
   CO2             1.534e-04   1.609e-04    -3.814    -3.793     0.021     30.26
   CaHCO3+         4.285e-05   3.231e-05    -4.368    -4.491    -0.123     10.07
   MgCO3           1.170e-05   1.228e-05    -4.932    -4.911     0.021    -17.09
   CO3-2           8.496e-06   2.596e-06    -5.071    -5.586    -0.515     -2.28
   NaCO3-          6.955e-06   5.171e-06    -5.158    -5.286    -0.129     -1.41
   CaCO3           5.304e-06   5.565e-06    -5.275    -5.255     0.021    -14.60
Ca            4.408e-03
   Ca+2            4.017e-03   1.276e-03    -2.396    -2.894    -0.498    -16.72
   CaSO4           3.426e-04   3.595e-04    -3.465    -3.444     0.021      7.50
   CaHCO3+         4.285e-05   3.231e-05    -4.368    -4.491    -0.123     10.07
   CaCO3           5.304e-06   5.565e-06    -5.275    -5.255     0.021    -14.60
   CaOH+           7.787e-09   5.872e-09    -8.109    -8.231    -0.123     (0)  
   CaHSO4+         1.138e-10   8.471e-11    -9.944   -10.072    -0.128     (0)  
Cl            1.697e-01
   Cl-             1.697e-01   1.202e-01    -0.770    -0.920    -0.150     18.46
H(0)          2.825e-39
   H2              1.412e-39   1.482e-39   -38.850   -38.829     0.021     28.61
K             3.173e-03
   K+              3.140e-03   2.225e-03    -2.503    -2.653    -0.150      9.36
   KSO4-           3.331e-05   2.476e-05    -4.477    -4.606    -0.129     (0)  
Mg            1.652e-02
   Mg+2            1.459e-02   4.957e-03    -1.836    -2.305    -0.469    -20.79
   MgSO4           1.755e-03   1.841e-03    -2.756    -2.735     0.021      5.84
   MgHCO3+         1.610e-04   1.151e-04    -3.793    -3.939    -0.146      5.88
   MgCO3           1.170e-05   1.228e-05    -4.932    -4.911     0.021    -17.09
   MgOH+           6.548e-07   4.990e-07    -6.184    -6.302    -0.118     (0)  
Na            1.456e-01
   Na+             1.443e-01   1.070e-01    -0.841    -0.971    -0.130     -0.84
   NaSO4-          1.142e-03   8.493e-04    -2.942    -3.071    -0.129     28.65
   NaHCO3          2.023e-04   2.123e-04    -3.694    -3.673     0.021     29.13
   NaCO3-          6.955e-06   5.171e-06    -5.158    -5.286    -0.129     -1.41
O(0)          3.575e-15
   O2              1.788e-15   1.876e-15   -14.748   -14.727     0.021     30.40
S(-2)         0.000e+00
   HS-             0.000e+00   0.000e+00  -119.149  -119.302    -0.153     21.00
   H2S             0.000e+00   0.000e+00  -119.827  -119.806     0.021     37.16
   S-2             0.000e+00   0.000e+00  -124.242  -124.775    -0.533     (0)  
S(6)          8.777e-03
   SO4-2           5.505e-03   1.584e-03    -2.259    -2.800    -0.541     13.64
   MgSO4           1.755e-03   1.841e-03    -2.756    -2.735     0.021      5.84
   NaSO4-          1.142e-03   8.493e-04    -2.942    -3.071    -0.129     28.65
   CaSO4           3.426e-04   3.595e-04    -3.465    -3.444     0.021      7.50
   KSO4-           3.331e-05   2.476e-05    -4.477    -4.606    -0.129     (0)  
   HSO4-           7.607e-09   5.522e-09    -8.119    -8.258    -0.139     35.57
   CaHSO4+         1.138e-10   8.471e-11    -9.944   -10.072    -0.128     (0)  
Si            2.215e-05
   H4SiO4          2.201e-05   2.310e-05    -4.657    -4.636     0.021     52.08
   H3SiO4-         1.329e-07   9.500e-08    -6.877    -7.022    -0.146     28.37
   H2SiO4-2        5.899e-13   1.803e-13   -12.229   -12.744    -0.515     (0)  

------------------------------Saturation indices-------------------------------

	Phase               SI   log IAP   log K(298 K,   1 atm)

	Anhydrite        -1.45     -5.69   -4.24  CaSO4
	Aragonite        -0.14     -8.48   -8.34  CaCO3
	Calcite           0.00     -8.48   -8.48  CaCO3
	CH4(g)         -119.27   -122.11   -2.84  CH4
	Chalcedony       -1.08     -4.63   -3.55  SiO2
	Chrysotile       -3.72     28.48   32.20  Mg3Si2O5(OH)4
	CO2(g)           -2.33     -3.79   -1.46  CO2
	Dolomite          0.72    -16.37  -17.09  CaMg(CO3)2
	Gypsum           -1.12     -5.70   -4.58  CaSO4:2H2O
	H2(g)           -35.73    -38.83   -3.10  H2
	H2O(g)           -1.51     -0.00    1.50  H2O
	H2S(g)         -118.76   -126.75   -7.99  H2S
	Halite           -3.47     -1.89    1.58  NaCl
	O2(g)           -11.83    -14.73   -2.89  O2
	Quartz           -0.65     -4.63   -3.98  SiO2
	Sepiolite        -4.50     11.26   15.76  Mg2Si3O7.5OH:3H2O
	Sepiolite(d)     -7.40     11.26   18.66  Mg2Si3O7.5OH:3H2O
	SiO2(a)          -1.92     -4.63   -2.71  SiO2
	Sulfur          -89.01    -84.13    4.88  S
	Talc             -2.18     19.22   21.40  Mg3Si4O10(OH)2


------------------
End of simulation.
------------------

------------------------------------
Reading input data for simulation 6.
------------------------------------

------------------------------
End of Run after 0.02 Seconds.
------------------------------

