   Input file: ../examples/ex10
  Output file: ex10.out
Database file: ../database/phreeqc.dat

------------------
Reading data base.
------------------

	SOLUTION_MASTER_SPECIES
	SOLUTION_SPECIES
	PHASES
	EXCHANGE_MASTER_SPECIES
	EXCHANGE_SPECIES
	SURFACE_MASTER_SPECIES
	SURFACE_SPECIES
	RATES
	END
------------------------------------
Reading input data for simulation 1.
------------------------------------

	TITLE Example 10.--Solid solution of strontianite and aragonite.
	PHASES
	        Strontianite
	                SrCO3 = CO3-2 + Sr+2
	                log_k           -9.271
	        Aragonite
	                CaCO3 = CO3-2 + Ca+2
	                log_k           -8.336
	END
-----
TITLE
-----

 Example 10.--Solid solution of strontianite and aragonite.

------------------
End of simulation.
------------------

------------------------------------
Reading input data for simulation 2.
------------------------------------

	SOLID_SOLUTIONS 1
	        Ca(x)Sr(1-x)CO3 
	                comp1   Aragonite       0 
	                comp2   Strontianite    0 
	                gugg_nondimensional   3.43    -1.82
	END
---------------------------------------------
Description of Solid Solution Ca(x)Sr(1-x)CO3
---------------------------------------------

	                              Temperature: 298.15 kelvin
	                       A0 (dimensionless): 3.43
	                       A1 (dimensionless): -1.82
	                              A0 (kJ/mol): 8.50307
	                              A1 (kJ/mol): -4.51183

	    Critical mole-fraction of component 2: 0.297625
	                     Critical temperature: 703.036 kelvin

(The critical temperature calculation assumes that the Guggenheim model
defined at 298.15 kelvin is valid at the critical temperature.)


	 Spinodal-gap mole fractions, component 2: 0.0654427	0.619798
	   Miscibility-gap fractions, component 2: 0.0048032	0.857863

			Eutectic Point Calculations

	     Aqueous activity ratio (comp2/comp1): 0.0981043
	 Log aqueous activity ratio (comp2/comp1): -1.00831
	 Aqueous activity fraction of component 2: 0.0893397
	                    Log IAP (component 2): -9.34631
	                    Log IAP (component 1): -8.338
	                               Log Sum Pi: -8.29736

Local minimum in the solidus curve coresponding to a maximum
in the minimum stoichiometric saturation curve.

	       Solid mole fraction of component 2: 0.198353
	                    Log IAP (component 2): -8.91133
	                    Log IAP (component 1): -8.30479
	                               Log Sum Pi: -8.20877
------------------
End of simulation.
------------------

------------------------------------
Reading input data for simulation 3.
------------------------------------

	SOLUTION 1
	        units mmol/kgw
	        pH 5.93 charge
	        Ca      3.932
	        C       7.864
	EQUILIBRIUM_PHASES 1
	        CO2(g) -0.01265 10
	        Aragonite
	SAVE solution 1
	END
-------------------------------------------
Beginning of initial solution calculations.
-------------------------------------------

Initial solution 1.	

-----------------------------Solution composition------------------------------

	Elements           Molality       Moles

	C                 7.864e-03   7.864e-03
	Ca                3.932e-03   3.932e-03

----------------------------Description of solution----------------------------

                                       pH  =   7.969      Charge balance
                                       pe  =   4.000    
       Specific Conductance (uS/cm, 25 oC) = 677
                          Density (g/cm3)  =   0.99755
                        Activity of water  =   1.000
                           Ionic strength  =   1.105e-02
                       Mass of water (kg)  =   1.000e+00
                 Total alkalinity (eq/kg)  =   7.864e-03
                       Total CO2 (mol/kg)  =   7.864e-03
                      Temperature (deg C)  =  25.00
                  Electrical balance (eq)  =   1.173e-16
 Percent error, 100*(Cat-|An|)/(Cat+|An|)  =   0.00
                               Iterations  =   9
                                  Total H  = 1.110200e+02
                                  Total O  = 5.552965e+01

----------------------------Distribution of species----------------------------

                                               Log       Log       Log    mole V
   Species          Molality    Activity  Molality  Activity     Gamma   cm3/mol

   OH-             1.041e-06   9.323e-07    -5.983    -6.030    -0.048     -3.99
   H+              1.181e-08   1.075e-08    -7.928    -7.969    -0.041      0.00
   H2O             5.551e+01   9.998e-01     1.744    -0.000     0.000     18.07
C(-4)         0.000e+00
   CH4             0.000e+00   0.000e+00   -75.157   -75.156     0.001     32.22
C(4)          7.864e-03
   HCO3-           7.325e-03   6.601e-03    -2.135    -2.180    -0.045     24.68
   CaHCO3+         2.215e-04   1.996e-04    -3.655    -3.700    -0.045      9.74
   CO2             1.591e-04   1.595e-04    -3.798    -3.797     0.001     30.26
   CaCO3           1.144e-04   1.147e-04    -3.942    -3.940     0.001    -14.60
   CO3-2           4.368e-05   2.881e-05    -4.360    -4.541    -0.181     -3.70
Ca            3.932e-03
   Ca+2            3.596e-03   2.370e-03    -2.444    -2.625    -0.181    -17.27
   CaHCO3+         2.215e-04   1.996e-04    -3.655    -3.700    -0.045      9.74
   CaCO3           1.144e-04   1.147e-04    -3.942    -3.940     0.001    -14.60
   CaOH+           4.076e-08   3.659e-08    -7.390    -7.437    -0.047     (0)  
H(0)          1.631e-27
   H2              8.156e-28   8.177e-28   -27.088   -27.087     0.001     28.61
O(0)          1.243e-38
   O2              6.216e-39   6.232e-39   -38.206   -38.205     0.001     30.40

------------------------------Saturation indices-------------------------------

	Phase               SI   log IAP   log K(298 K,   1 atm)

	Aragonite         1.17     -7.17   -8.34  CaCO3
	Calcite           1.31     -7.17   -8.48  CaCO3
	CH4(g)          -72.31    -75.16   -2.84  CH4
	CO2(g)           -2.34     -3.80   -1.46  CO2
	H2(g)           -23.99    -27.09   -3.10  H2
	H2O(g)           -1.50     -0.00    1.50  H2O
	O2(g)           -35.31    -38.21   -2.89  O2


-----------------------------------------
Beginning of batch-reaction calculations.
-----------------------------------------

Reaction step 1.

Using solution 1.	
Using pure phase assemblage 1.	

-------------------------------Phase assemblage--------------------------------

                                                      Moles in assemblage
Phase               SI  log IAP  log K(T, P)   Initial       Final       Delta

Aragonite        -0.00    -8.34     -8.34    1.000e+01   9.993e+00  -6.662e-03
CO2(g)           -0.01    -1.48     -1.46    1.000e+01   9.960e+00  -3.991e-02

-----------------------------Solution composition------------------------------

	Elements           Molality       Moles

	C                 5.444e-02   5.443e-02
	Ca                1.060e-02   1.059e-02

----------------------------Description of solution----------------------------

                                       pH  =   6.059      Charge balance
                                       pe  =  11.757      Adjusted to redox equilibrium
       Specific Conductance (uS/cm, 25 oC) = 1702
                          Density (g/cm3)  =   0.99887
                        Activity of water  =   0.999
                           Ionic strength  =   2.921e-02
                       Mass of water (kg)  =   9.999e-01
                 Total alkalinity (eq/kg)  =   2.119e-02
                       Total CO2 (mol/kg)  =   5.444e-02
                      Temperature (deg C)  =  25.00
                  Electrical balance (eq)  =   8.525e-13
 Percent error, 100*(Cat-|An|)/(Cat+|An|)  =   0.00
                               Iterations  =  10
                                  Total H  = 1.110200e+02
                                  Total O  = 5.562945e+01

----------------------------Distribution of species----------------------------

                                               Log       Log       Log    mole V
   Species          Molality    Activity  Molality  Activity     Gamma   cm3/mol

   H+              9.966e-07   8.721e-07    -6.002    -6.059    -0.058      0.00
   OH-             1.358e-08   1.148e-08    -7.867    -7.940    -0.073     -3.90
   H2O             5.551e+01   9.989e-01     1.744    -0.000     0.000     18.07
C(-4)         0.000e+00
   CH4             0.000e+00   0.000e+00  -119.618  -119.615     0.003     32.22
C(4)          5.444e-02
   CO2             3.326e-02   3.348e-02    -1.478    -1.475     0.003     30.26
   HCO3-           1.990e-02   1.706e-02    -1.701    -1.768    -0.067     24.78
   CaHCO3+         1.277e-03   1.095e-03    -2.894    -2.961    -0.067      9.81
   CaCO3           7.698e-06   7.750e-06    -5.114    -5.111     0.003    -14.60
   CO3-2           1.698e-06   9.172e-07    -5.770    -6.038    -0.268     -3.44
Ca            1.060e-02
   Ca+2            9.311e-03   5.030e-03    -2.031    -2.298    -0.267    -17.15
   CaHCO3+         1.277e-03   1.095e-03    -2.894    -2.961    -0.067      9.81
   CaCO3           7.698e-06   7.750e-06    -5.114    -5.111     0.003    -14.60
   CaOH+           1.123e-09   9.561e-10    -8.950    -9.020    -0.070     (0)  
H(0)          3.276e-39
   H2              1.638e-39   1.649e-39   -38.786   -38.783     0.003     28.61
O(0)          3.038e-15
   O2              1.519e-15   1.529e-15   -14.818   -14.816     0.003     30.40

------------------------------Saturation indices-------------------------------

	Phase               SI   log IAP   log K(298 K,   1 atm)

	Aragonite        -0.00     -8.34   -8.34  CaCO3
	Calcite           0.14     -8.34   -8.48  CaCO3
	CH4(g)         -116.77   -119.61   -2.84  CH4
	CO2(g)           -0.01     -1.48   -1.46  CO2	 Pressure   1.0 atm, phi 0.995.
	H2(g)           -35.68    -38.78   -3.10  H2
	H2O(g)           -1.50     -0.00    1.50  H2O
	O2(g)           -11.92    -14.82   -2.89  O2


------------------
End of simulation.
------------------

------------------------------------
Reading input data for simulation 4.
------------------------------------

	USE solution 1
	USE solid_solution 1
	REACTION 1
	        SrCO3   1.0
	        .005 in 500 steps 
	PRINT
	        reset false
	        user_print true
	USER_PRINT
	start
	  10 sum = (S_S("Strontianite") + S_S("Aragonite"))
	  20 if sum = 0 THEN GOTO 110
	  30 xb = S_S("Strontianite")/sum
	  40 xc = S_S("Aragonite")/sum
	  50 PRINT "Simulation number:    ", SIM_NO
	  60 PRINT "Reaction step number: ", STEP_NO
	  70 PRINT "SrCO3 added:          ", RXN
	  80 PRINT "Log Sigma pi:         ", LOG10 (ACT("CO3-2") * (ACT("Ca+2") + ACT("Sr+2")))
	  90 PRINT "XAragonite:           ", xc
	 100 PRINT "XStrontianite:        ", xb
	 110 PRINT "XCa:                  ", TOT("Ca")/(TOT("Ca") + TOT("Sr"))
	 120 PRINT "XSr:                  ", TOT("Sr")/(TOT("Ca") + TOT("Sr"))
	 130 PRINT "Misc 1:               ", MISC1("Ca(x)Sr(1-x)CO3")
	 140 PRINT "Misc 2:               ", MISC2("Ca(x)Sr(1-x)CO3")
	end
	SELECTED_OUTPUT
	        file ex10.sel
	        reset false
	        reaction true
	USER_PUNCH
	heading   lg_SigmaPi X_Arag X_Stront X_Ca_aq X_Sr_aq mol_Misc1 mol_Misc2 mol_Arag mol_Stront
	start
	  10 sum = (S_S("Strontianite") + S_S("Aragonite"))
	  20 if sum = 0 THEN GOTO 60
	  30 xb = S_S("Strontianite")/(S_S("Strontianite") + S_S("Aragonite"))
	  40 xc = S_S("Aragonite")/(S_S("Strontianite") + S_S("Aragonite"))
	  50 REM Sigma Pi
	  60 PUNCH LOG10(ACT("CO3-2") * (ACT("Ca+2") + ACT("Sr+2")))
	  70 PUNCH xc                                 # Mole fraction aragonite
	  80 PUNCH xb                                 # Mole fraction strontianite
	  90 PUNCH TOT("Ca")/(TOT("Ca") + TOT("Sr"))  # Mole aqueous calcium
	  100 PUNCH TOT("Sr")/(TOT("Ca") + TOT("Sr")) # Mole aqueous strontium
	  110 x1 = MISC1("Ca(x)Sr(1-x)CO3")
	  120 x2 = MISC2("Ca(x)Sr(1-x)CO3")
	  130 if (xb < x1 OR xb > x2) THEN GOTO 250
	  140    nc = S_S("Aragonite")
	  150    nb = S_S("Strontianite")
	  160    mol2 = ((x1 - 1)/x1)*nb + nc
	  170    mol2 = mol2 / ( ((x1 -1)/x1)*x2 + (1 - x2))
	  180    mol1 = (nb - mol2*x2)/x1
	  190    REM                                 # Moles of misc. end members if in gap
	  200    PUNCH mol1
	  210    PUNCH mol2
	  220    GOTO 300
	  250    REM                                 # Moles of misc. end members if not in gap
	  260    PUNCH 1e-10
	  270    PUNCH 1e-10
	  300 PUNCH S_S("Aragonite")                 # Moles aragonite
	  310 PUNCH S_S("Strontianite")              # Moles Strontianite
	end
	USER_GRAPH Example 10
	        -headings x_Aragonite  x_Srontianite
	        -chart_title "Aragonite-Strontianite Solid Solution"
	        -axis_titles "Log(SrCO3 ADDED, IN MOLES)" "Log(MOLE FRACTION OF COMPONENT)"
	        -axis_scale x_axis -5 1 1 1
	        -axis_scale y_axis -5 0.1 1 1
	        -connect_simulations true
	        -start
	  10 sum = (S_S("Strontianite") + S_S("Aragonite"))
	  20 IF sum = 0 THEN GOTO 70
	  30 xb = S_S("Strontianite")/ sum
	  40 xc = S_S("Aragonite")/ sum
	  50 PLOT_XY LOG10(RXN), LOG10(xc), line_w = 2, symbol_size = 0
	  60 PLOT_XY LOG10(RXN), LOG10(xb), line_w = 2, symbol_size = 0
	  70 rem
	  -end
	END     
----------------------------------User print-----------------------------------

Simulation number:                4 
Reaction step number:             1 
SrCO3 added:             1.0000e-05 
Log Sigma pi:           -8.3356e+00 
XAragonite:              9.9996e-01 
XStrontianite:           4.1867e-05 
XCa:                     9.9906e-01 
XSr:                     9.4357e-04 
Misc 1:                  4.8032e-03 
Misc 2:                  8.5786e-01 

----------------------------------User print-----------------------------------

Simulation number:                4 
Reaction step number:             2 
SrCO3 added:             2.0000e-05 
Log Sigma pi:           -8.3352e+00 
XAragonite:              9.9992e-01 
XStrontianite:           8.3843e-05 
XCa:                     9.9811e-01 
XSr:                     1.8865e-03 
Misc 1:                  4.8032e-03 
Misc 2:                  8.5786e-01 

----------------------------------User print-----------------------------------

Simulation number:                4 
Reaction step number:             3 
SrCO3 added:             3.0000e-05 
Log Sigma pi:           -8.3348e+00 
XAragonite:              9.9987e-01 
XStrontianite:           1.2593e-04 
XCa:                     9.9717e-01 
XSr:                     2.8287e-03 
Misc 1:                  4.8032e-03 
Misc 2:                  8.5786e-01 

----------------------------------User print-----------------------------------

Simulation number:                4 
Reaction step number:             4 
SrCO3 added:             4.0000e-05 
Log Sigma pi:           -8.3345e+00 
XAragonite:              9.9983e-01 
XStrontianite:           1.6812e-04 
XCa:                     9.9623e-01 
XSr:                     3.7703e-03 
Misc 1:                  4.8032e-03 
Misc 2:                  8.5786e-01 

----------------------------------User print-----------------------------------

Simulation number:                4 
Reaction step number:             5 
SrCO3 added:             5.0000e-05 
Log Sigma pi:           -8.3341e+00 
XAragonite:              9.9979e-01 
XStrontianite:           2.1042e-04 
XCa:                     9.9529e-01 
XSr:                     4.7112e-03 
Misc 1:                  4.8032e-03 
Misc 2:                  8.5786e-01 

----------------------------------User print-----------------------------------

Simulation number:                4 
Reaction step number:             6 
SrCO3 added:             6.0000e-05 
Log Sigma pi:           -8.3337e+00 
XAragonite:              9.9975e-01 
XStrontianite:           2.5283e-04 
XCa:                     9.9435e-01 
XSr:                     5.6514e-03 
Misc 1:                  4.8032e-03 
Misc 2:                  8.5786e-01 

----------------------------------User print-----------------------------------

Simulation number:                4 
Reaction step number:             7 
SrCO3 added:             7.0000e-05 
Log Sigma pi:           -8.3333e+00 
XAragonite:              9.9970e-01 
XStrontianite:           2.9536e-04 
XCa:                     9.9341e-01 
XSr:                     6.5910e-03 
Misc 1:                  4.8032e-03 
Misc 2:                  8.5786e-01 

----------------------------------User print-----------------------------------

Simulation number:                4 
Reaction step number:             8 
SrCO3 added:             8.0000e-05 
Log Sigma pi:           -8.3329e+00 
XAragonite:              9.9966e-01 
XStrontianite:           3.3799e-04 
XCa:                     9.9247e-01 
XSr:                     7.5299e-03 
Misc 1:                  4.8032e-03 
Misc 2:                  8.5786e-01 

----------------------------------User print-----------------------------------

Simulation number:                4 
Reaction step number:             9 
SrCO3 added:             9.0000e-05 
Log Sigma pi:           -8.3325e+00 
XAragonite:              9.9962e-01 
XStrontianite:           3.8074e-04 
XCa:                     9.9153e-01 
XSr:                     8.4681e-03 
Misc 1:                  4.8032e-03 
Misc 2:                  8.5786e-01 

----------------------------------User print-----------------------------------

Simulation number:                4 
Reaction step number:            10 
SrCO3 added:             1.0000e-04 
Log Sigma pi:           -8.3322e+00 
XAragonite:              9.9958e-01 
XStrontianite:           4.2359e-04 
XCa:                     9.9059e-01 
XSr:                     9.4057e-03 
Misc 1:                  4.8032e-03 
Misc 2:                  8.5786e-01 

----------------------------------User print-----------------------------------

Simulation number:                4 
Reaction step number:            11 
SrCO3 added:             1.1000e-04 
Log Sigma pi:           -8.3318e+00 
XAragonite:              9.9953e-01 
XStrontianite:           4.6656e-04 
XCa:                     9.8966e-01 
XSr:                     1.0343e-02 
Misc 1:                  4.8032e-03 
Misc 2:                  8.5786e-01 

----------------------------------User print-----------------------------------

Simulation number:                4 
Reaction step number:            12 
SrCO3 added:             1.2000e-04 
Log Sigma pi:           -8.3314e+00 
XAragonite:              9.9949e-01 
XStrontianite:           5.0964e-04 
XCa:                     9.8872e-01 
XSr:                     1.1279e-02 
Misc 1:                  4.8032e-03 
Misc 2:                  8.5786e-01 

----------------------------------User print-----------------------------------

Simulation number:                4 
Reaction step number:            13 
SrCO3 added:             1.3000e-04 
Log Sigma pi:           -8.3310e+00 
XAragonite:              9.9945e-01 
XStrontianite:           5.5284e-04 
XCa:                     9.8779e-01 
XSr:                     1.2214e-02 
Misc 1:                  4.8032e-03 
Misc 2:                  8.5786e-01 

----------------------------------User print-----------------------------------

Simulation number:                4 
Reaction step number:            14 
SrCO3 added:             1.4000e-04 
Log Sigma pi:           -8.3306e+00 
XAragonite:              9.9940e-01 
XStrontianite:           5.9615e-04 
XCa:                     9.8685e-01 
XSr:                     1.3149e-02 
Misc 1:                  4.8032e-03 
Misc 2:                  8.5786e-01 

----------------------------------User print-----------------------------------

Simulation number:                4 
Reaction step number:            15 
SrCO3 added:             1.5000e-04 
Log Sigma pi:           -8.3302e+00 
XAragonite:              9.9936e-01 
XStrontianite:           6.3957e-04 
XCa:                     9.8592e-01 
XSr:                     1.4083e-02 
Misc 1:                  4.8032e-03 
Misc 2:                  8.5786e-01 

----------------------------------User print-----------------------------------

Simulation number:                4 
Reaction step number:            16 
SrCO3 added:             1.6000e-04 
Log Sigma pi:           -8.3299e+00 
XAragonite:              9.9932e-01 
XStrontianite:           6.8311e-04 
XCa:                     9.8498e-01 
XSr:                     1.5017e-02 
Misc 1:                  4.8032e-03 
Misc 2:                  8.5786e-01 

----------------------------------User print-----------------------------------

Simulation number:                4 
Reaction step number:            17 
SrCO3 added:             1.7000e-04 
Log Sigma pi:           -8.3295e+00 
XAragonite:              9.9927e-01 
XStrontianite:           7.2676e-04 
XCa:                     9.8405e-01 
XSr:                     1.5950e-02 
Misc 1:                  4.8032e-03 
Misc 2:                  8.5786e-01 

----------------------------------User print-----------------------------------

Simulation number:                4 
Reaction step number:            18 
SrCO3 added:             1.8000e-04 
Log Sigma pi:           -8.3291e+00 
XAragonite:              9.9923e-01 
XStrontianite:           7.7053e-04 
XCa:                     9.8312e-01 
XSr:                     1.6882e-02 
Misc 1:                  4.8032e-03 
Misc 2:                  8.5786e-01 

----------------------------------User print-----------------------------------

Simulation number:                4 
Reaction step number:            19 
SrCO3 added:             1.9000e-04 
Log Sigma pi:           -8.3287e+00 
XAragonite:              9.9919e-01 
XStrontianite:           8.1441e-04 
XCa:                     9.8219e-01 
XSr:                     1.7814e-02 
Misc 1:                  4.8032e-03 
Misc 2:                  8.5786e-01 

----------------------------------User print-----------------------------------

Simulation number:                4 
Reaction step number:            20 
SrCO3 added:             2.0000e-04 
Log Sigma pi:           -8.3283e+00 
XAragonite:              9.9914e-01 
XStrontianite:           8.5841e-04 
XCa:                     9.8126e-01 
XSr:                     1.8745e-02 
Misc 1:                  4.8032e-03 
Misc 2:                  8.5786e-01 

----------------------------------User print-----------------------------------

Simulation number:                4 
Reaction step number:            21 
SrCO3 added:             2.1000e-04 
Log Sigma pi:           -8.3279e+00 
XAragonite:              9.9910e-01 
XStrontianite:           9.0253e-04 
XCa:                     9.8033e-01 
XSr:                     1.9675e-02 
Misc 1:                  4.8032e-03 
Misc 2:                  8.5786e-01 

----------------------------------User print-----------------------------------

Simulation number:                4 
Reaction step number:            22 
SrCO3 added:             2.2000e-04 
Log Sigma pi:           -8.3275e+00 
XAragonite:              9.9905e-01 
XStrontianite:           9.4677e-04 
XCa:                     9.7940e-01 
XSr:                     2.0604e-02 
Misc 1:                  4.8032e-03 
Misc 2:                  8.5786e-01 

----------------------------------User print-----------------------------------

Simulation number:                4 
Reaction step number:            23 
SrCO3 added:             2.3000e-04 
Log Sigma pi:           -8.3272e+00 
XAragonite:              9.9901e-01 
XStrontianite:           9.9112e-04 
XCa:                     9.7847e-01 
XSr:                     2.1533e-02 
Misc 1:                  4.8032e-03 
Misc 2:                  8.5786e-01 

----------------------------------User print-----------------------------------

Simulation number:                4 
Reaction step number:            24 
SrCO3 added:             2.4000e-04 
Log Sigma pi:           -8.3268e+00 
XAragonite:              9.9896e-01 
XStrontianite:           1.0356e-03 
XCa:                     9.7754e-01 
XSr:                     2.2461e-02 
Misc 1:                  4.8032e-03 
Misc 2:                  8.5786e-01 

----------------------------------User print-----------------------------------

Simulation number:                4 
Reaction step number:            25 
SrCO3 added:             2.5000e-04 
Log Sigma pi:           -8.3264e+00 
XAragonite:              9.9892e-01 
XStrontianite:           1.0802e-03 
XCa:                     9.7661e-01 
XSr:                     2.3389e-02 
Misc 1:                  4.8032e-03 
Misc 2:                  8.5786e-01 

----------------------------------User print-----------------------------------

Simulation number:                4 
Reaction step number:            26 
SrCO3 added:             2.6000e-04 
Log Sigma pi:           -8.3260e+00 
XAragonite:              9.9888e-01 
XStrontianite:           1.1249e-03 
XCa:                     9.7568e-01 
XSr:                     2.4316e-02 
Misc 1:                  4.8032e-03 
Misc 2:                  8.5786e-01 

----------------------------------User print-----------------------------------

Simulation number:                4 
Reaction step number:            27 
SrCO3 added:             2.7000e-04 
Log Sigma pi:           -8.3256e+00 
XAragonite:              9.9883e-01 
XStrontianite:           1.1697e-03 
XCa:                     9.7476e-01 
XSr:                     2.5242e-02 
Misc 1:                  4.8032e-03 
Misc 2:                  8.5786e-01 

----------------------------------User print-----------------------------------

Simulation number:                4 
Reaction step number:            28 
SrCO3 added:             2.8000e-04 
Log Sigma pi:           -8.3252e+00 
XAragonite:              9.9879e-01 
XStrontianite:           1.2147e-03 
XCa:                     9.7383e-01 
XSr:                     2.6168e-02 
Misc 1:                  4.8032e-03 
Misc 2:                  8.5786e-01 

----------------------------------User print-----------------------------------

Simulation number:                4 
Reaction step number:            29 
SrCO3 added:             2.9000e-04 
Log Sigma pi:           -8.3248e+00 
XAragonite:              9.9874e-01 
XStrontianite:           1.2598e-03 
XCa:                     9.7291e-01 
XSr:                     2.7093e-02 
Misc 1:                  4.8032e-03 
Misc 2:                  8.5786e-01 

----------------------------------User print-----------------------------------

Simulation number:                4 
Reaction step number:            30 
SrCO3 added:             3.0000e-04 
Log Sigma pi:           -8.3245e+00 
XAragonite:              9.9870e-01 
XStrontianite:           1.3050e-03 
XCa:                     9.7198e-01 
XSr:                     2.8017e-02 
Misc 1:                  4.8032e-03 
Misc 2:                  8.5786e-01 

----------------------------------User print-----------------------------------

Simulation number:                4 
Reaction step number:            31 
SrCO3 added:             3.1000e-04 
Log Sigma pi:           -8.3241e+00 
XAragonite:              9.9865e-01 
XStrontianite:           1.3503e-03 
XCa:                     9.7106e-01 
XSr:                     2.8940e-02 
Misc 1:                  4.8032e-03 
Misc 2:                  8.5786e-01 

----------------------------------User print-----------------------------------

Simulation number:                4 
Reaction step number:            32 
SrCO3 added:             3.2000e-04 
Log Sigma pi:           -8.3237e+00 
XAragonite:              9.9860e-01 
XStrontianite:           1.3957e-03 
XCa:                     9.7014e-01 
XSr:                     2.9863e-02 
Misc 1:                  4.8032e-03 
Misc 2:                  8.5786e-01 

----------------------------------User print-----------------------------------

Simulation number:                4 
Reaction step number:            33 
SrCO3 added:             3.3000e-04 
Log Sigma pi:           -8.3233e+00 
XAragonite:              9.9856e-01 
XStrontianite:           1.4413e-03 
XCa:                     9.6921e-01 
XSr:                     3.0785e-02 
Misc 1:                  4.8032e-03 
Misc 2:                  8.5786e-01 

----------------------------------User print-----------------------------------

Simulation number:                4 
Reaction step number:            34 
SrCO3 added:             3.4000e-04 
Log Sigma pi:           -8.3229e+00 
XAragonite:              9.9851e-01 
XStrontianite:           1.4870e-03 
XCa:                     9.6829e-01 
XSr:                     3.1707e-02 
Misc 1:                  4.8032e-03 
Misc 2:                  8.5786e-01 

----------------------------------User print-----------------------------------

Simulation number:                4 
Reaction step number:            35 
SrCO3 added:             3.5000e-04 
Log Sigma pi:           -8.3225e+00 
XAragonite:              9.9847e-01 
XStrontianite:           1.5328e-03 
XCa:                     9.6737e-01 
XSr:                     3.2628e-02 
Misc 1:                  4.8032e-03 
Misc 2:                  8.5786e-01 

----------------------------------User print-----------------------------------

Simulation number:                4 
Reaction step number:            36 
SrCO3 added:             3.6000e-04 
Log Sigma pi:           -8.3221e+00 
XAragonite:              9.9842e-01 
XStrontianite:           1.5787e-03 
XCa:                     9.6645e-01 
XSr:                     3.3548e-02 
Misc 1:                  4.8032e-03 
Misc 2:                  8.5786e-01 

----------------------------------User print-----------------------------------

Simulation number:                4 
Reaction step number:            37 
SrCO3 added:             3.7000e-04 
Log Sigma pi:           -8.3218e+00 
XAragonite:              9.9838e-01 
XStrontianite:           1.6248e-03 
XCa:                     9.6553e-01 
XSr:                     3.4468e-02 
Misc 1:                  4.8032e-03 
Misc 2:                  8.5786e-01 

----------------------------------User print-----------------------------------

Simulation number:                4 
Reaction step number:            38 
SrCO3 added:             3.8000e-04 
Log Sigma pi:           -8.3214e+00 
XAragonite:              9.9833e-01 
XStrontianite:           1.6710e-03 
XCa:                     9.6461e-01 
XSr:                     3.5387e-02 
Misc 1:                  4.8032e-03 
Misc 2:                  8.5786e-01 

----------------------------------User print-----------------------------------

Simulation number:                4 
Reaction step number:            39 
SrCO3 added:             3.9000e-04 
Log Sigma pi:           -8.3210e+00 
XAragonite:              9.9828e-01 
XStrontianite:           1.7173e-03 
XCa:                     9.6370e-01 
XSr:                     3.6305e-02 
Misc 1:                  4.8032e-03 
Misc 2:                  8.5786e-01 

----------------------------------User print-----------------------------------

Simulation number:                4 
Reaction step number:            40 
SrCO3 added:             4.0000e-04 
Log Sigma pi:           -8.3206e+00 
XAragonite:              9.9824e-01 
XStrontianite:           1.7637e-03 
XCa:                     9.6278e-01 
XSr:                     3.7222e-02 
Misc 1:                  4.8032e-03 
Misc 2:                  8.5786e-01 

----------------------------------User print-----------------------------------

Simulation number:                4 
Reaction step number:            41 
SrCO3 added:             4.1000e-04 
Log Sigma pi:           -8.3202e+00 
XAragonite:              9.9819e-01 
XStrontianite:           1.8103e-03 
XCa:                     9.6186e-01 
XSr:                     3.8139e-02 
Misc 1:                  4.8032e-03 
Misc 2:                  8.5786e-01 

----------------------------------User print-----------------------------------

Simulation number:                4 
Reaction step number:            42 
SrCO3 added:             4.2000e-04 
Log Sigma pi:           -8.3198e+00 
XAragonite:              9.9814e-01 
XStrontianite:           1.8570e-03 
XCa:                     9.6094e-01 
XSr:                     3.9055e-02 
Misc 1:                  4.8032e-03 
Misc 2:                  8.5786e-01 

----------------------------------User print-----------------------------------

Simulation number:                4 
Reaction step number:            43 
SrCO3 added:             4.3000e-04 
Log Sigma pi:           -8.3194e+00 
XAragonite:              9.9810e-01 
XStrontianite:           1.9038e-03 
XCa:                     9.6003e-01 
XSr:                     3.9971e-02 
Misc 1:                  4.8032e-03 
Misc 2:                  8.5786e-01 

----------------------------------User print-----------------------------------

Simulation number:                4 
Reaction step number:            44 
SrCO3 added:             4.4000e-04 
Log Sigma pi:           -8.3191e+00 
XAragonite:              9.9805e-01 
XStrontianite:           1.9508e-03 
XCa:                     9.5911e-01 
XSr:                     4.0886e-02 
Misc 1:                  4.8032e-03 
Misc 2:                  8.5786e-01 

----------------------------------User print-----------------------------------

Simulation number:                4 
Reaction step number:            45 
SrCO3 added:             4.5000e-04 
Log Sigma pi:           -8.3187e+00 
XAragonite:              9.9800e-01 
XStrontianite:           1.9979e-03 
XCa:                     9.5820e-01 
XSr:                     4.1800e-02 
Misc 1:                  4.8032e-03 
Misc 2:                  8.5786e-01 

----------------------------------User print-----------------------------------

Simulation number:                4 
Reaction step number:            46 
SrCO3 added:             4.6000e-04 
Log Sigma pi:           -8.3183e+00 
XAragonite:              9.9795e-01 
XStrontianite:           2.0451e-03 
XCa:                     9.5729e-01 
XSr:                     4.2714e-02 
Misc 1:                  4.8032e-03 
Misc 2:                  8.5786e-01 

----------------------------------User print-----------------------------------

Simulation number:                4 
Reaction step number:            47 
SrCO3 added:             4.7000e-04 
Log Sigma pi:           -8.3179e+00 
XAragonite:              9.9791e-01 
XStrontianite:           2.0924e-03 
XCa:                     9.5637e-01 
XSr:                     4.3627e-02 
Misc 1:                  4.8032e-03 
Misc 2:                  8.5786e-01 

----------------------------------User print-----------------------------------

Simulation number:                4 
Reaction step number:            48 
SrCO3 added:             4.8000e-04 
Log Sigma pi:           -8.3175e+00 
XAragonite:              9.9786e-01 
XStrontianite:           2.1399e-03 
XCa:                     9.5546e-01 
XSr:                     4.4539e-02 
Misc 1:                  4.8032e-03 
Misc 2:                  8.5786e-01 

----------------------------------User print-----------------------------------

Simulation number:                4 
Reaction step number:            49 
SrCO3 added:             4.9000e-04 
Log Sigma pi:           -8.3171e+00 
XAragonite:              9.9781e-01 
XStrontianite:           2.1875e-03 
XCa:                     9.5455e-01 
XSr:                     4.5450e-02 
Misc 1:                  4.8032e-03 
Misc 2:                  8.5786e-01 

----------------------------------User print-----------------------------------

Simulation number:                4 
Reaction step number:            50 
SrCO3 added:             5.0000e-04 
Log Sigma pi:           -8.3167e+00 
XAragonite:              9.9776e-01 
XStrontianite:           2.2353e-03 
XCa:                     9.5364e-01 
XSr:                     4.6361e-02 
Misc 1:                  4.8032e-03 
Misc 2:                  8.5786e-01 

----------------------------------User print-----------------------------------

Simulation number:                4 
Reaction step number:            51 
SrCO3 added:             5.1000e-04 
Log Sigma pi:           -8.3163e+00 
XAragonite:              9.9772e-01 
XStrontianite:           2.2832e-03 
XCa:                     9.5273e-01 
XSr:                     4.7271e-02 
Misc 1:                  4.8032e-03 
Misc 2:                  8.5786e-01 

----------------------------------User print-----------------------------------

Simulation number:                4 
Reaction step number:            52 
SrCO3 added:             5.2000e-04 
Log Sigma pi:           -8.3160e+00 
XAragonite:              9.9767e-01 
XStrontianite:           2.3312e-03 
XCa:                     9.5182e-01 
XSr:                     4.8181e-02 
Misc 1:                  4.8032e-03 
Misc 2:                  8.5786e-01 

----------------------------------User print-----------------------------------

Simulation number:                4 
Reaction step number:            53 
SrCO3 added:             5.3000e-04 
Log Sigma pi:           -8.3156e+00 
XAragonite:              9.9762e-01 
XStrontianite:           2.3793e-03 
XCa:                     9.5091e-01 
XSr:                     4.9090e-02 
Misc 1:                  4.8032e-03 
Misc 2:                  8.5786e-01 

----------------------------------User print-----------------------------------

Simulation number:                4 
Reaction step number:            54 
SrCO3 added:             5.4000e-04 
Log Sigma pi:           -8.3152e+00 
XAragonite:              9.9757e-01 
XStrontianite:           2.4276e-03 
XCa:                     9.5000e-01 
XSr:                     4.9998e-02 
Misc 1:                  4.8032e-03 
Misc 2:                  8.5786e-01 

----------------------------------User print-----------------------------------

Simulation number:                4 
Reaction step number:            55 
SrCO3 added:             5.5000e-04 
Log Sigma pi:           -8.3148e+00 
XAragonite:              9.9752e-01 
XStrontianite:           2.4761e-03 
XCa:                     9.4909e-01 
XSr:                     5.0906e-02 
Misc 1:                  4.8032e-03 
Misc 2:                  8.5786e-01 

----------------------------------User print-----------------------------------

Simulation number:                4 
Reaction step number:            56 
SrCO3 added:             5.6000e-04 
Log Sigma pi:           -8.3144e+00 
XAragonite:              9.9748e-01 
XStrontianite:           2.5246e-03 
XCa:                     9.4819e-01 
XSr:                     5.1813e-02 
Misc 1:                  4.8032e-03 
Misc 2:                  8.5786e-01 

----------------------------------User print-----------------------------------

Simulation number:                4 
Reaction step number:            57 
SrCO3 added:             5.7000e-04 
Log Sigma pi:           -8.3140e+00 
XAragonite:              9.9743e-01 
XStrontianite:           2.5733e-03 
XCa:                     9.4728e-01 
XSr:                     5.2719e-02 
Misc 1:                  4.8032e-03 
Misc 2:                  8.5786e-01 

----------------------------------User print-----------------------------------

Simulation number:                4 
Reaction step number:            58 
SrCO3 added:             5.8000e-04 
Log Sigma pi:           -8.3136e+00 
XAragonite:              9.9738e-01 
XStrontianite:           2.6222e-03 
XCa:                     9.4638e-01 
XSr:                     5.3624e-02 
Misc 1:                  4.8032e-03 
Misc 2:                  8.5786e-01 

----------------------------------User print-----------------------------------

Simulation number:                4 
Reaction step number:            59 
SrCO3 added:             5.9000e-04 
Log Sigma pi:           -8.3133e+00 
XAragonite:              9.9733e-01 
XStrontianite:           2.6711e-03 
XCa:                     9.4547e-01 
XSr:                     5.4529e-02 
Misc 1:                  4.8032e-03 
Misc 2:                  8.5786e-01 

----------------------------------User print-----------------------------------

Simulation number:                4 
Reaction step number:            60 
SrCO3 added:             6.0000e-04 
Log Sigma pi:           -8.3129e+00 
XAragonite:              9.9728e-01 
XStrontianite:           2.7202e-03 
XCa:                     9.4457e-01 
XSr:                     5.5434e-02 
Misc 1:                  4.8032e-03 
Misc 2:                  8.5786e-01 

----------------------------------User print-----------------------------------

Simulation number:                4 
Reaction step number:            61 
SrCO3 added:             6.1000e-04 
Log Sigma pi:           -8.3125e+00 
XAragonite:              9.9723e-01 
XStrontianite:           2.7695e-03 
XCa:                     9.4366e-01 
XSr:                     5.6337e-02 
Misc 1:                  4.8032e-03 
Misc 2:                  8.5786e-01 

----------------------------------User print-----------------------------------

Simulation number:                4 
Reaction step number:            62 
SrCO3 added:             6.2000e-04 
Log Sigma pi:           -8.3121e+00 
XAragonite:              9.9718e-01 
XStrontianite:           2.8189e-03 
XCa:                     9.4276e-01 
XSr:                     5.7240e-02 
Misc 1:                  4.8032e-03 
Misc 2:                  8.5786e-01 

----------------------------------User print-----------------------------------

Simulation number:                4 
Reaction step number:            63 
SrCO3 added:             6.3000e-04 
Log Sigma pi:           -8.3117e+00 
XAragonite:              9.9713e-01 
XStrontianite:           2.8684e-03 
XCa:                     9.4186e-01 
XSr:                     5.8142e-02 
Misc 1:                  4.8032e-03 
Misc 2:                  8.5786e-01 

----------------------------------User print-----------------------------------

Simulation number:                4 
Reaction step number:            64 
SrCO3 added:             6.4000e-04 
Log Sigma pi:           -8.3113e+00 
XAragonite:              9.9708e-01 
XStrontianite:           2.9181e-03 
XCa:                     9.4096e-01 
XSr:                     5.9044e-02 
Misc 1:                  4.8032e-03 
Misc 2:                  8.5786e-01 

----------------------------------User print-----------------------------------

Simulation number:                4 
Reaction step number:            65 
SrCO3 added:             6.5000e-04 
Log Sigma pi:           -8.3109e+00 
XAragonite:              9.9703e-01 
XStrontianite:           2.9679e-03 
XCa:                     9.4006e-01 
XSr:                     5.9945e-02 
Misc 1:                  4.8032e-03 
Misc 2:                  8.5786e-01 

----------------------------------User print-----------------------------------

Simulation number:                4 
Reaction step number:            66 
SrCO3 added:             6.6000e-04 
Log Sigma pi:           -8.3105e+00 
XAragonite:              9.9698e-01 
XStrontianite:           3.0179e-03 
XCa:                     9.3915e-01 
XSr:                     6.0845e-02 
Misc 1:                  4.8032e-03 
Misc 2:                  8.5786e-01 

----------------------------------User print-----------------------------------

Simulation number:                4 
Reaction step number:            67 
SrCO3 added:             6.7000e-04 
Log Sigma pi:           -8.3102e+00 
XAragonite:              9.9693e-01 
XStrontianite:           3.0680e-03 
XCa:                     9.3826e-01 
XSr:                     6.1745e-02 
Misc 1:                  4.8032e-03 
Misc 2:                  8.5786e-01 

----------------------------------User print-----------------------------------

Simulation number:                4 
Reaction step number:            68 
SrCO3 added:             6.8000e-04 
Log Sigma pi:           -8.3098e+00 
XAragonite:              9.9688e-01 
XStrontianite:           3.1183e-03 
XCa:                     9.3736e-01 
XSr:                     6.2644e-02 
Misc 1:                  4.8032e-03 
Misc 2:                  8.5786e-01 

----------------------------------User print-----------------------------------

Simulation number:                4 
Reaction step number:            69 
SrCO3 added:             6.9000e-04 
Log Sigma pi:           -8.3094e+00 
XAragonite:              9.9683e-01 
XStrontianite:           3.1687e-03 
XCa:                     9.3646e-01 
XSr:                     6.3542e-02 
Misc 1:                  4.8032e-03 
Misc 2:                  8.5786e-01 

----------------------------------User print-----------------------------------

Simulation number:                4 
Reaction step number:            70 
SrCO3 added:             7.0000e-04 
Log Sigma pi:           -8.3090e+00 
XAragonite:              9.9678e-01 
XStrontianite:           3.2192e-03 
XCa:                     9.3556e-01 
XSr:                     6.4439e-02 
Misc 1:                  4.8032e-03 
Misc 2:                  8.5786e-01 

----------------------------------User print-----------------------------------

Simulation number:                4 
Reaction step number:            71 
SrCO3 added:             7.1000e-04 
Log Sigma pi:           -8.3086e+00 
XAragonite:              9.9673e-01 
XStrontianite:           3.2699e-03 
XCa:                     9.3466e-01 
XSr:                     6.5336e-02 
Misc 1:                  4.8032e-03 
Misc 2:                  8.5786e-01 

----------------------------------User print-----------------------------------

Simulation number:                4 
Reaction step number:            72 
SrCO3 added:             7.2000e-04 
Log Sigma pi:           -8.3082e+00 
XAragonite:              9.9668e-01 
XStrontianite:           3.3208e-03 
XCa:                     9.3377e-01 
XSr:                     6.6233e-02 
Misc 1:                  4.8032e-03 
Misc 2:                  8.5786e-01 

----------------------------------User print-----------------------------------

Simulation number:                4 
Reaction step number:            73 
SrCO3 added:             7.3000e-04 
Log Sigma pi:           -8.3078e+00 
XAragonite:              9.9663e-01 
XStrontianite:           3.3717e-03 
XCa:                     9.3287e-01 
XSr:                     6.7128e-02 
Misc 1:                  4.8032e-03 
Misc 2:                  8.5786e-01 

----------------------------------User print-----------------------------------

Simulation number:                4 
Reaction step number:            74 
SrCO3 added:             7.4000e-04 
Log Sigma pi:           -8.3074e+00 
XAragonite:              9.9658e-01 
XStrontianite:           3.4229e-03 
XCa:                     9.3198e-01 
XSr:                     6.8023e-02 
Misc 1:                  4.8032e-03 
Misc 2:                  8.5786e-01 

----------------------------------User print-----------------------------------

Simulation number:                4 
Reaction step number:            75 
SrCO3 added:             7.5000e-04 
Log Sigma pi:           -8.3070e+00 
XAragonite:              9.9653e-01 
XStrontianite:           3.4742e-03 
XCa:                     9.3108e-01 
XSr:                     6.8917e-02 
Misc 1:                  4.8032e-03 
Misc 2:                  8.5786e-01 

----------------------------------User print-----------------------------------

Simulation number:                4 
Reaction step number:            76 
SrCO3 added:             7.6000e-04 
Log Sigma pi:           -8.3067e+00 
XAragonite:              9.9647e-01 
XStrontianite:           3.5256e-03 
XCa:                     9.3019e-01 
XSr:                     6.9811e-02 
Misc 1:                  4.8032e-03 
Misc 2:                  8.5786e-01 

----------------------------------User print-----------------------------------

Simulation number:                4 
Reaction step number:            77 
SrCO3 added:             7.7000e-04 
Log Sigma pi:           -8.3063e+00 
XAragonite:              9.9642e-01 
XStrontianite:           3.5772e-03 
XCa:                     9.2930e-01 
XSr:                     7.0704e-02 
Misc 1:                  4.8032e-03 
Misc 2:                  8.5786e-01 

----------------------------------User print-----------------------------------

Simulation number:                4 
Reaction step number:            78 
SrCO3 added:             7.8000e-04 
Log Sigma pi:           -8.3059e+00 
XAragonite:              9.9637e-01 
XStrontianite:           3.6290e-03 
XCa:                     9.2840e-01 
XSr:                     7.1596e-02 
Misc 1:                  4.8032e-03 
Misc 2:                  8.5786e-01 

----------------------------------User print-----------------------------------

Simulation number:                4 
Reaction step number:            79 
SrCO3 added:             7.9000e-04 
Log Sigma pi:           -8.3055e+00 
XAragonite:              9.9632e-01 
XStrontianite:           3.6809e-03 
XCa:                     9.2751e-01 
XSr:                     7.2488e-02 
Misc 1:                  4.8032e-03 
Misc 2:                  8.5786e-01 

----------------------------------User print-----------------------------------

Simulation number:                4 
Reaction step number:            80 
SrCO3 added:             8.0000e-04 
Log Sigma pi:           -8.3051e+00 
XAragonite:              9.9627e-01 
XStrontianite:           3.7329e-03 
XCa:                     9.2662e-01 
XSr:                     7.3379e-02 
Misc 1:                  4.8032e-03 
Misc 2:                  8.5786e-01 

----------------------------------User print-----------------------------------

Simulation number:                4 
Reaction step number:            81 
SrCO3 added:             8.1000e-04 
Log Sigma pi:           -8.3047e+00 
XAragonite:              9.9621e-01 
XStrontianite:           3.7851e-03 
XCa:                     9.2573e-01 
XSr:                     7.4269e-02 
Misc 1:                  4.8032e-03 
Misc 2:                  8.5786e-01 

----------------------------------User print-----------------------------------

Simulation number:                4 
Reaction step number:            82 
SrCO3 added:             8.2000e-04 
Log Sigma pi:           -8.3043e+00 
XAragonite:              9.9616e-01 
XStrontianite:           3.8375e-03 
XCa:                     9.2484e-01 
XSr:                     7.5159e-02 
Misc 1:                  4.8032e-03 
Misc 2:                  8.5786e-01 

----------------------------------User print-----------------------------------

Simulation number:                4 
Reaction step number:            83 
SrCO3 added:             8.3000e-04 
Log Sigma pi:           -8.3039e+00 
XAragonite:              9.9611e-01 
XStrontianite:           3.8900e-03 
XCa:                     9.2395e-01 
XSr:                     7.6048e-02 
Misc 1:                  4.8032e-03 
Misc 2:                  8.5786e-01 

----------------------------------User print-----------------------------------

Simulation number:                4 
Reaction step number:            84 
SrCO3 added:             8.4000e-04 
Log Sigma pi:           -8.3036e+00 
XAragonite:              9.9606e-01 
XStrontianite:           3.9427e-03 
XCa:                     9.2306e-01 
XSr:                     7.6936e-02 
Misc 1:                  4.8032e-03 
Misc 2:                  8.5786e-01 

----------------------------------User print-----------------------------------

Simulation number:                4 
Reaction step number:            85 
SrCO3 added:             8.5000e-04 
Log Sigma pi:           -8.3032e+00 
XAragonite:              9.9600e-01 
XStrontianite:           3.9955e-03 
XCa:                     9.2218e-01 
XSr:                     7.7823e-02 
Misc 1:                  4.8032e-03 
Misc 2:                  8.5786e-01 

----------------------------------User print-----------------------------------

Simulation number:                4 
Reaction step number:            86 
SrCO3 added:             8.6000e-04 
Log Sigma pi:           -8.3028e+00 
XAragonite:              9.9595e-01 
XStrontianite:           4.0485e-03 
XCa:                     9.2129e-01 
XSr:                     7.8710e-02 
Misc 1:                  4.8032e-03 
Misc 2:                  8.5786e-01 

----------------------------------User print-----------------------------------

Simulation number:                4 
Reaction step number:            87 
SrCO3 added:             8.7000e-04 
Log Sigma pi:           -8.3024e+00 
XAragonite:              9.9590e-01 
XStrontianite:           4.1016e-03 
XCa:                     9.2040e-01 
XSr:                     7.9597e-02 
Misc 1:                  4.8032e-03 
Misc 2:                  8.5786e-01 

----------------------------------User print-----------------------------------

Simulation number:                4 
Reaction step number:            88 
SrCO3 added:             8.8000e-04 
Log Sigma pi:           -8.3020e+00 
XAragonite:              9.9585e-01 
XStrontianite:           4.1549e-03 
XCa:                     9.1952e-01 
XSr:                     8.0482e-02 
Misc 1:                  4.8032e-03 
Misc 2:                  8.5786e-01 

----------------------------------User print-----------------------------------

Simulation number:                4 
Reaction step number:            89 
SrCO3 added:             8.9000e-04 
Log Sigma pi:           -8.3016e+00 
XAragonite:              9.9579e-01 
XStrontianite:           4.2084e-03 
XCa:                     9.1863e-01 
XSr:                     8.1367e-02 
Misc 1:                  4.8032e-03 
Misc 2:                  8.5786e-01 

----------------------------------User print-----------------------------------

Simulation number:                4 
Reaction step number:            90 
SrCO3 added:             9.0000e-04 
Log Sigma pi:           -8.3012e+00 
XAragonite:              9.9574e-01 
XStrontianite:           4.2620e-03 
XCa:                     9.1775e-01 
XSr:                     8.2252e-02 
Misc 1:                  4.8032e-03 
Misc 2:                  8.5786e-01 

----------------------------------User print-----------------------------------

Simulation number:                4 
Reaction step number:            91 
SrCO3 added:             9.1000e-04 
Log Sigma pi:           -8.3008e+00 
XAragonite:              9.9568e-01 
XStrontianite:           4.3158e-03 
XCa:                     9.1686e-01 
XSr:                     8.3135e-02 
Misc 1:                  4.8032e-03 
Misc 2:                  8.5786e-01 

----------------------------------User print-----------------------------------

Simulation number:                4 
Reaction step number:            92 
SrCO3 added:             9.2000e-04 
Log Sigma pi:           -8.3004e+00 
XAragonite:              9.9563e-01 
XStrontianite:           4.3698e-03 
XCa:                     9.1598e-01 
XSr:                     8.4018e-02 
Misc 1:                  4.8032e-03 
Misc 2:                  8.5786e-01 

----------------------------------User print-----------------------------------

Simulation number:                4 
Reaction step number:            93 
SrCO3 added:             9.3000e-04 
Log Sigma pi:           -8.3001e+00 
XAragonite:              9.9558e-01 
XStrontianite:           4.4239e-03 
XCa:                     9.1510e-01 
XSr:                     8.4900e-02 
Misc 1:                  4.8032e-03 
Misc 2:                  8.5786e-01 

----------------------------------User print-----------------------------------

Simulation number:                4 
Reaction step number:            94 
SrCO3 added:             9.4000e-04 
Log Sigma pi:           -8.2997e+00 
XAragonite:              9.9552e-01 
XStrontianite:           4.4782e-03 
XCa:                     9.1422e-01 
XSr:                     8.5782e-02 
Misc 1:                  4.8032e-03 
Misc 2:                  8.5786e-01 

----------------------------------User print-----------------------------------

Simulation number:                4 
Reaction step number:            95 
SrCO3 added:             9.5000e-04 
Log Sigma pi:           -8.2993e+00 
XAragonite:              9.9547e-01 
XStrontianite:           4.5326e-03 
XCa:                     9.1334e-01 
XSr:                     8.6663e-02 
Misc 1:                  4.8032e-03 
Misc 2:                  8.5786e-01 

----------------------------------User print-----------------------------------

Simulation number:                4 
Reaction step number:            96 
SrCO3 added:             9.6000e-04 
Log Sigma pi:           -8.2989e+00 
XAragonite:              9.9541e-01 
XStrontianite:           4.5872e-03 
XCa:                     9.1246e-01 
XSr:                     8.7543e-02 
Misc 1:                  4.8032e-03 
Misc 2:                  8.5786e-01 

----------------------------------User print-----------------------------------

Simulation number:                4 
Reaction step number:            97 
SrCO3 added:             9.7000e-04 
Log Sigma pi:           -8.2985e+00 
XAragonite:              9.9536e-01 
XStrontianite:           4.6420e-03 
XCa:                     9.1158e-01 
XSr:                     8.8423e-02 
Misc 1:                  4.8032e-03 
Misc 2:                  8.5786e-01 

----------------------------------User print-----------------------------------

Simulation number:                4 
Reaction step number:            98 
SrCO3 added:             9.8000e-04 
Log Sigma pi:           -8.2981e+00 
XAragonite:              9.9530e-01 
XStrontianite:           4.6970e-03 
XCa:                     9.1070e-01 
XSr:                     8.9302e-02 
Misc 1:                  4.8032e-03 
Misc 2:                  8.5786e-01 

----------------------------------User print-----------------------------------

Simulation number:                4 
Reaction step number:            99 
SrCO3 added:             9.9000e-04 
Log Sigma pi:           -8.2977e+00 
XAragonite:              9.9525e-01 
XStrontianite:           4.7521e-03 
XCa:                     9.0982e-01 
XSr:                     9.0180e-02 
Misc 1:                  4.8032e-03 
Misc 2:                  8.5786e-01 

----------------------------------User print-----------------------------------

Simulation number:                4 
Reaction step number:           100 
SrCO3 added:             1.0000e-03 
Log Sigma pi:           -8.2974e+00 
XAragonite:              9.9403e-01 
XStrontianite:           5.9680e-03 
XCa:                     9.0901e-01 
XSr:                     9.0992e-02 
Misc 1:                  4.8032e-03 
Misc 2:                  8.5786e-01 

----------------------------------User print-----------------------------------

Simulation number:                4 
Reaction step number:           101 
SrCO3 added:             1.0100e-03 
Log Sigma pi:           -8.2974e+00 
XAragonite:              9.7889e-01 
XStrontianite:           2.1106e-02 
XCa:                     9.0901e-01 
XSr:                     9.0992e-02 
Misc 1:                  4.8032e-03 
Misc 2:                  8.5786e-01 

----------------------------------User print-----------------------------------

Simulation number:                4 
Reaction step number:           102 
SrCO3 added:             1.0200e-03 
Log Sigma pi:           -8.2974e+00 
XAragonite:              9.6421e-01 
XStrontianite:           3.5790e-02 
XCa:                     9.0901e-01 
XSr:                     9.0992e-02 
Misc 1:                  4.8032e-03 
Misc 2:                  8.5786e-01 

----------------------------------User print-----------------------------------

Simulation number:                4 
Reaction step number:           103 
SrCO3 added:             1.0300e-03 
Log Sigma pi:           -8.2974e+00 
XAragonite:              9.4996e-01 
XStrontianite:           5.0040e-02 
XCa:                     9.0901e-01 
XSr:                     9.0992e-02 
Misc 1:                  4.8032e-03 
Misc 2:                  8.5786e-01 

----------------------------------User print-----------------------------------

Simulation number:                4 
Reaction step number:           104 
SrCO3 added:             1.0400e-03 
Log Sigma pi:           -8.2974e+00 
XAragonite:              9.3612e-01 
XStrontianite:           6.3875e-02 
XCa:                     9.0901e-01 
XSr:                     9.0992e-02 
Misc 1:                  4.8032e-03 
Misc 2:                  8.5786e-01 

----------------------------------User print-----------------------------------

Simulation number:                4 
Reaction step number:           105 
SrCO3 added:             1.0500e-03 
Log Sigma pi:           -8.2974e+00 
XAragonite:              9.2269e-01 
XStrontianite:           7.7313e-02 
XCa:                     9.0901e-01 
XSr:                     9.0992e-02 
Misc 1:                  4.8032e-03 
Misc 2:                  8.5786e-01 

----------------------------------User print-----------------------------------

Simulation number:                4 
Reaction step number:           106 
SrCO3 added:             1.0600e-03 
Log Sigma pi:           -8.2974e+00 
XAragonite:              9.0963e-01 
XStrontianite:           9.0370e-02 
XCa:                     9.0901e-01 
XSr:                     9.0992e-02 
Misc 1:                  4.8032e-03 
Misc 2:                  8.5786e-01 

----------------------------------User print-----------------------------------

Simulation number:                4 
Reaction step number:           107 
SrCO3 added:             1.0700e-03 
Log Sigma pi:           -8.2974e+00 
XAragonite:              8.9694e-01 
XStrontianite:           1.0306e-01 
XCa:                     9.0901e-01 
XSr:                     9.0992e-02 
Misc 1:                  4.8032e-03 
Misc 2:                  8.5786e-01 

----------------------------------User print-----------------------------------

Simulation number:                4 
Reaction step number:           108 
SrCO3 added:             1.0800e-03 
Log Sigma pi:           -8.2974e+00 
XAragonite:              8.8459e-01 
XStrontianite:           1.1541e-01 
XCa:                     9.0901e-01 
XSr:                     9.0992e-02 
Misc 1:                  4.8032e-03 
Misc 2:                  8.5786e-01 

----------------------------------User print-----------------------------------

Simulation number:                4 
Reaction step number:           109 
SrCO3 added:             1.0900e-03 
Log Sigma pi:           -8.2974e+00 
XAragonite:              8.7258e-01 
XStrontianite:           1.2742e-01 
XCa:                     9.0901e-01 
XSr:                     9.0992e-02 
Misc 1:                  4.8032e-03 
Misc 2:                  8.5786e-01 

----------------------------------User print-----------------------------------

Simulation number:                4 
Reaction step number:           110 
SrCO3 added:             1.1000e-03 
Log Sigma pi:           -8.2974e+00 
XAragonite:              8.6090e-01 
XStrontianite:           1.3910e-01 
XCa:                     9.0901e-01 
XSr:                     9.0992e-02 
Misc 1:                  4.8032e-03 
Misc 2:                  8.5786e-01 

----------------------------------User print-----------------------------------

Simulation number:                4 
Reaction step number:           111 
SrCO3 added:             1.1100e-03 
Log Sigma pi:           -8.2974e+00 
XAragonite:              8.4952e-01 
XStrontianite:           1.5048e-01 
XCa:                     9.0901e-01 
XSr:                     9.0992e-02 
Misc 1:                  4.8032e-03 
Misc 2:                  8.5786e-01 

----------------------------------User print-----------------------------------

Simulation number:                4 
Reaction step number:           112 
SrCO3 added:             1.1200e-03 
Log Sigma pi:           -8.2974e+00 
XAragonite:              8.3844e-01 
XStrontianite:           1.6156e-01 
XCa:                     9.0901e-01 
XSr:                     9.0992e-02 
Misc 1:                  4.8032e-03 
Misc 2:                  8.5786e-01 

----------------------------------User print-----------------------------------

Simulation number:                4 
Reaction step number:           113 
SrCO3 added:             1.1300e-03 
Log Sigma pi:           -8.2974e+00 
XAragonite:              8.2764e-01 
XStrontianite:           1.7236e-01 
XCa:                     9.0901e-01 
XSr:                     9.0992e-02 
Misc 1:                  4.8032e-03 
Misc 2:                  8.5786e-01 

----------------------------------User print-----------------------------------

Simulation number:                4 
Reaction step number:           114 
SrCO3 added:             1.1400e-03 
Log Sigma pi:           -8.2974e+00 
XAragonite:              8.1712e-01 
XStrontianite:           1.8288e-01 
XCa:                     9.0901e-01 
XSr:                     9.0992e-02 
Misc 1:                  4.8032e-03 
Misc 2:                  8.5786e-01 

----------------------------------User print-----------------------------------

Simulation number:                4 
Reaction step number:           115 
SrCO3 added:             1.1500e-03 
Log Sigma pi:           -8.2974e+00 
XAragonite:              8.0686e-01 
XStrontianite:           1.9314e-01 
XCa:                     9.0901e-01 
XSr:                     9.0992e-02 
Misc 1:                  4.8032e-03 
Misc 2:                  8.5786e-01 

----------------------------------User print-----------------------------------

Simulation number:                4 
Reaction step number:           116 
SrCO3 added:             1.1600e-03 
Log Sigma pi:           -8.2974e+00 
XAragonite:              7.9686e-01 
XStrontianite:           2.0314e-01 
XCa:                     9.0901e-01 
XSr:                     9.0992e-02 
Misc 1:                  4.8032e-03 
Misc 2:                  8.5786e-01 

----------------------------------User print-----------------------------------

Simulation number:                4 
Reaction step number:           117 
SrCO3 added:             1.1700e-03 
Log Sigma pi:           -8.2974e+00 
XAragonite:              7.8710e-01 
XStrontianite:           2.1290e-01 
XCa:                     9.0901e-01 
XSr:                     9.0992e-02 
Misc 1:                  4.8032e-03 
Misc 2:                  8.5786e-01 

----------------------------------User print-----------------------------------

Simulation number:                4 
Reaction step number:           118 
SrCO3 added:             1.1800e-03 
Log Sigma pi:           -8.2974e+00 
XAragonite:              7.7758e-01 
XStrontianite:           2.2242e-01 
XCa:                     9.0901e-01 
XSr:                     9.0992e-02 
Misc 1:                  4.8032e-03 
Misc 2:                  8.5786e-01 

----------------------------------User print-----------------------------------

Simulation number:                4 
Reaction step number:           119 
SrCO3 added:             1.1900e-03 
Log Sigma pi:           -8.2974e+00 
XAragonite:              7.6829e-01 
XStrontianite:           2.3171e-01 
XCa:                     9.0901e-01 
XSr:                     9.0992e-02 
Misc 1:                  4.8032e-03 
Misc 2:                  8.5786e-01 

----------------------------------User print-----------------------------------

Simulation number:                4 
Reaction step number:           120 
SrCO3 added:             1.2000e-03 
Log Sigma pi:           -8.2974e+00 
XAragonite:              7.5921e-01 
XStrontianite:           2.4079e-01 
XCa:                     9.0901e-01 
XSr:                     9.0992e-02 
Misc 1:                  4.8032e-03 
Misc 2:                  8.5786e-01 

----------------------------------User print-----------------------------------

Simulation number:                4 
Reaction step number:           121 
SrCO3 added:             1.2100e-03 
Log Sigma pi:           -8.2974e+00 
XAragonite:              7.5035e-01 
XStrontianite:           2.4965e-01 
XCa:                     9.0901e-01 
XSr:                     9.0992e-02 
Misc 1:                  4.8032e-03 
Misc 2:                  8.5786e-01 

----------------------------------User print-----------------------------------

Simulation number:                4 
Reaction step number:           122 
SrCO3 added:             1.2200e-03 
Log Sigma pi:           -8.2974e+00 
XAragonite:              7.4169e-01 
XStrontianite:           2.5831e-01 
XCa:                     9.0901e-01 
XSr:                     9.0992e-02 
Misc 1:                  4.8032e-03 
Misc 2:                  8.5786e-01 

----------------------------------User print-----------------------------------

Simulation number:                4 
Reaction step number:           123 
SrCO3 added:             1.2300e-03 
Log Sigma pi:           -8.2974e+00 
XAragonite:              7.3323e-01 
XStrontianite:           2.6677e-01 
XCa:                     9.0901e-01 
XSr:                     9.0992e-02 
Misc 1:                  4.8032e-03 
Misc 2:                  8.5786e-01 

----------------------------------User print-----------------------------------

Simulation number:                4 
Reaction step number:           124 
SrCO3 added:             1.2400e-03 
Log Sigma pi:           -8.2974e+00 
XAragonite:              7.2496e-01 
XStrontianite:           2.7504e-01 
XCa:                     9.0901e-01 
XSr:                     9.0992e-02 
Misc 1:                  4.8032e-03 
Misc 2:                  8.5786e-01 

----------------------------------User print-----------------------------------

Simulation number:                4 
Reaction step number:           125 
SrCO3 added:             1.2500e-03 
Log Sigma pi:           -8.2974e+00 
XAragonite:              7.1688e-01 
XStrontianite:           2.8312e-01 
XCa:                     9.0901e-01 
XSr:                     9.0992e-02 
Misc 1:                  4.8032e-03 
Misc 2:                  8.5786e-01 

----------------------------------User print-----------------------------------

Simulation number:                4 
Reaction step number:           126 
SrCO3 added:             1.2600e-03 
Log Sigma pi:           -8.2974e+00 
XAragonite:              7.0897e-01 
XStrontianite:           2.9103e-01 
XCa:                     9.0901e-01 
XSr:                     9.0992e-02 
Misc 1:                  4.8032e-03 
Misc 2:                  8.5786e-01 

----------------------------------User print-----------------------------------

Simulation number:                4 
Reaction step number:           127 
SrCO3 added:             1.2700e-03 
Log Sigma pi:           -8.2974e+00 
XAragonite:              7.0124e-01 
XStrontianite:           2.9876e-01 
XCa:                     9.0901e-01 
XSr:                     9.0992e-02 
Misc 1:                  4.8032e-03 
Misc 2:                  8.5786e-01 

----------------------------------User print-----------------------------------

Simulation number:                4 
Reaction step number:           128 
SrCO3 added:             1.2800e-03 
Log Sigma pi:           -8.2974e+00 
XAragonite:              6.9367e-01 
XStrontianite:           3.0633e-01 
XCa:                     9.0901e-01 
XSr:                     9.0992e-02 
Misc 1:                  4.8032e-03 
Misc 2:                  8.5786e-01 

----------------------------------User print-----------------------------------

Simulation number:                4 
Reaction step number:           129 
SrCO3 added:             1.2900e-03 
Log Sigma pi:           -8.2974e+00 
XAragonite:              6.8626e-01 
XStrontianite:           3.1374e-01 
XCa:                     9.0901e-01 
XSr:                     9.0992e-02 
Misc 1:                  4.8032e-03 
Misc 2:                  8.5786e-01 

----------------------------------User print-----------------------------------

Simulation number:                4 
Reaction step number:           130 
SrCO3 added:             1.3000e-03 
Log Sigma pi:           -8.2974e+00 
XAragonite:              6.7901e-01 
XStrontianite:           3.2099e-01 
XCa:                     9.0901e-01 
XSr:                     9.0992e-02 
Misc 1:                  4.8032e-03 
Misc 2:                  8.5786e-01 

----------------------------------User print-----------------------------------

Simulation number:                4 
Reaction step number:           131 
SrCO3 added:             1.3100e-03 
Log Sigma pi:           -8.2974e+00 
XAragonite:              6.7191e-01 
XStrontianite:           3.2809e-01 
XCa:                     9.0901e-01 
XSr:                     9.0992e-02 
Misc 1:                  4.8032e-03 
Misc 2:                  8.5786e-01 

----------------------------------User print-----------------------------------

Simulation number:                4 
Reaction step number:           132 
SrCO3 added:             1.3200e-03 
Log Sigma pi:           -8.2974e+00 
XAragonite:              6.6496e-01 
XStrontianite:           3.3504e-01 
XCa:                     9.0901e-01 
XSr:                     9.0992e-02 
Misc 1:                  4.8032e-03 
Misc 2:                  8.5786e-01 

----------------------------------User print-----------------------------------

Simulation number:                4 
Reaction step number:           133 
SrCO3 added:             1.3300e-03 
Log Sigma pi:           -8.2974e+00 
XAragonite:              6.5815e-01 
XStrontianite:           3.4185e-01 
XCa:                     9.0901e-01 
XSr:                     9.0992e-02 
Misc 1:                  4.8032e-03 
Misc 2:                  8.5786e-01 

----------------------------------User print-----------------------------------

Simulation number:                4 
Reaction step number:           134 
SrCO3 added:             1.3400e-03 
Log Sigma pi:           -8.2974e+00 
XAragonite:              6.5148e-01 
XStrontianite:           3.4852e-01 
XCa:                     9.0901e-01 
XSr:                     9.0992e-02 
Misc 1:                  4.8032e-03 
Misc 2:                  8.5786e-01 

----------------------------------User print-----------------------------------

Simulation number:                4 
Reaction step number:           135 
SrCO3 added:             1.3500e-03 
Log Sigma pi:           -8.2974e+00 
XAragonite:              6.4495e-01 
XStrontianite:           3.5505e-01 
XCa:                     9.0901e-01 
XSr:                     9.0992e-02 
Misc 1:                  4.8032e-03 
Misc 2:                  8.5786e-01 

----------------------------------User print-----------------------------------

Simulation number:                4 
Reaction step number:           136 
SrCO3 added:             1.3600e-03 
Log Sigma pi:           -8.2974e+00 
XAragonite:              6.3854e-01 
XStrontianite:           3.6146e-01 
XCa:                     9.0901e-01 
XSr:                     9.0992e-02 
Misc 1:                  4.8032e-03 
Misc 2:                  8.5786e-01 

----------------------------------User print-----------------------------------

Simulation number:                4 
Reaction step number:           137 
SrCO3 added:             1.3700e-03 
Log Sigma pi:           -8.2974e+00 
XAragonite:              6.3226e-01 
XStrontianite:           3.6774e-01 
XCa:                     9.0901e-01 
XSr:                     9.0992e-02 
Misc 1:                  4.8032e-03 
Misc 2:                  8.5786e-01 

----------------------------------User print-----------------------------------

Simulation number:                4 
Reaction step number:           138 
SrCO3 added:             1.3800e-03 
Log Sigma pi:           -8.2974e+00 
XAragonite:              6.2610e-01 
XStrontianite:           3.7390e-01 
XCa:                     9.0901e-01 
XSr:                     9.0992e-02 
Misc 1:                  4.8032e-03 
Misc 2:                  8.5786e-01 

----------------------------------User print-----------------------------------

Simulation number:                4 
Reaction step number:           139 
SrCO3 added:             1.3900e-03 
Log Sigma pi:           -8.2974e+00 
XAragonite:              6.2006e-01 
XStrontianite:           3.7994e-01 
XCa:                     9.0901e-01 
XSr:                     9.0992e-02 
Misc 1:                  4.8032e-03 
Misc 2:                  8.5786e-01 

----------------------------------User print-----------------------------------

Simulation number:                4 
Reaction step number:           140 
SrCO3 added:             1.4000e-03 
Log Sigma pi:           -8.2974e+00 
XAragonite:              6.1414e-01 
XStrontianite:           3.8586e-01 
XCa:                     9.0901e-01 
XSr:                     9.0992e-02 
Misc 1:                  4.8032e-03 
Misc 2:                  8.5786e-01 

----------------------------------User print-----------------------------------

Simulation number:                4 
Reaction step number:           141 
SrCO3 added:             1.4100e-03 
Log Sigma pi:           -8.2974e+00 
XAragonite:              6.0832e-01 
XStrontianite:           3.9168e-01 
XCa:                     9.0901e-01 
XSr:                     9.0992e-02 
Misc 1:                  4.8032e-03 
Misc 2:                  8.5786e-01 

----------------------------------User print-----------------------------------

Simulation number:                4 
Reaction step number:           142 
SrCO3 added:             1.4200e-03 
Log Sigma pi:           -8.2974e+00 
XAragonite:              6.0262e-01 
XStrontianite:           3.9738e-01 
XCa:                     9.0901e-01 
XSr:                     9.0992e-02 
Misc 1:                  4.8032e-03 
Misc 2:                  8.5786e-01 

----------------------------------User print-----------------------------------

Simulation number:                4 
Reaction step number:           143 
SrCO3 added:             1.4300e-03 
Log Sigma pi:           -8.2974e+00 
XAragonite:              5.9702e-01 
XStrontianite:           4.0298e-01 
XCa:                     9.0901e-01 
XSr:                     9.0992e-02 
Misc 1:                  4.8032e-03 
Misc 2:                  8.5786e-01 

----------------------------------User print-----------------------------------

Simulation number:                4 
Reaction step number:           144 
SrCO3 added:             1.4400e-03 
Log Sigma pi:           -8.2974e+00 
XAragonite:              5.9153e-01 
XStrontianite:           4.0847e-01 
XCa:                     9.0901e-01 
XSr:                     9.0992e-02 
Misc 1:                  4.8032e-03 
Misc 2:                  8.5786e-01 

----------------------------------User print-----------------------------------

Simulation number:                4 
Reaction step number:           145 
SrCO3 added:             1.4500e-03 
Log Sigma pi:           -8.2974e+00 
XAragonite:              5.8614e-01 
XStrontianite:           4.1386e-01 
XCa:                     9.0901e-01 
XSr:                     9.0992e-02 
Misc 1:                  4.8032e-03 
Misc 2:                  8.5786e-01 

----------------------------------User print-----------------------------------

Simulation number:                4 
Reaction step number:           146 
SrCO3 added:             1.4600e-03 
Log Sigma pi:           -8.2974e+00 
XAragonite:              5.8084e-01 
XStrontianite:           4.1916e-01 
XCa:                     9.0901e-01 
XSr:                     9.0992e-02 
Misc 1:                  4.8032e-03 
Misc 2:                  8.5786e-01 

----------------------------------User print-----------------------------------

Simulation number:                4 
Reaction step number:           147 
SrCO3 added:             1.4700e-03 
Log Sigma pi:           -8.2974e+00 
XAragonite:              5.7564e-01 
XStrontianite:           4.2436e-01 
XCa:                     9.0901e-01 
XSr:                     9.0992e-02 
Misc 1:                  4.8032e-03 
Misc 2:                  8.5786e-01 

----------------------------------User print-----------------------------------

Simulation number:                4 
Reaction step number:           148 
[...]

----------------------------------User print-----------------------------------

Simulation number:                6 
Reaction step number:            57 
SrCO3 added:             5.7000e+00 
Log Sigma pi:           -9.2392e+00 
XAragonite:              1.7939e-03 
XStrontianite:           9.9821e-01 
XCa:                     7.1549e-02 
XSr:                     9.2845e-01 
Misc 1:                  4.8032e-03 
Misc 2:                  8.5786e-01 

----------------------------------User print-----------------------------------

Simulation number:                6 
Reaction step number:            58 
SrCO3 added:             5.8000e+00 
Log Sigma pi:           -9.2397e+00 
XAragonite:              1.7640e-03 
XStrontianite:           9.9824e-01 
XCa:                     7.0430e-02 
XSr:                     9.2957e-01 
Misc 1:                  4.8032e-03 
Misc 2:                  8.5786e-01 

----------------------------------User print-----------------------------------

Simulation number:                6 
Reaction step number:            59 
SrCO3 added:             5.9000e+00 
Log Sigma pi:           -9.2402e+00 
XAragonite:              1.7351e-03 
XStrontianite:           9.9826e-01 
XCa:                     6.9346e-02 
XSr:                     9.3065e-01 
Misc 1:                  4.8032e-03 
Misc 2:                  8.5786e-01 

----------------------------------User print-----------------------------------

Simulation number:                6 
Reaction step number:            60 
SrCO3 added:                      6 
Log Sigma pi:           -9.2407e+00 
XAragonite:              1.7071e-03 
XStrontianite:           9.9829e-01 
XCa:                     6.8295e-02 
XSr:                     9.3170e-01 
Misc 1:                  4.8032e-03 
Misc 2:                  8.5786e-01 

----------------------------------User print-----------------------------------

Simulation number:                6 
Reaction step number:            61 
SrCO3 added:             6.1000e+00 
Log Sigma pi:           -9.2411e+00 
XAragonite:              1.6800e-03 
XStrontianite:           9.9832e-01 
XCa:                     6.7276e-02 
XSr:                     9.3272e-01 
Misc 1:                  4.8032e-03 
Misc 2:                  8.5786e-01 

----------------------------------User print-----------------------------------

Simulation number:                6 
Reaction step number:            62 
SrCO3 added:             6.2000e+00 
Log Sigma pi:           -9.2416e+00 
XAragonite:              1.6537e-03 
XStrontianite:           9.9835e-01 
XCa:                     6.6286e-02 
XSr:                     9.3371e-01 
Misc 1:                  4.8032e-03 
Misc 2:                  8.5786e-01 

----------------------------------User print-----------------------------------

Simulation number:                6 
Reaction step number:            63 
SrCO3 added:             6.3000e+00 
Log Sigma pi:           -9.2420e+00 
XAragonite:              1.6283e-03 
XStrontianite:           9.9837e-01 
XCa:                     6.5325e-02 
XSr:                     9.3467e-01 
Misc 1:                  4.8032e-03 
Misc 2:                  8.5786e-01 

----------------------------------User print-----------------------------------

Simulation number:                6 
Reaction step number:            64 
SrCO3 added:             6.4000e+00 
Log Sigma pi:           -9.2425e+00 
XAragonite:              1.6036e-03 
XStrontianite:           9.9840e-01 
XCa:                     6.4392e-02 
XSr:                     9.3561e-01 
Misc 1:                  4.8032e-03 
Misc 2:                  8.5786e-01 

----------------------------------User print-----------------------------------

Simulation number:                6 
Reaction step number:            65 
SrCO3 added:             6.5000e+00 
Log Sigma pi:           -9.2429e+00 
XAragonite:              1.5797e-03 
XStrontianite:           9.9842e-01 
XCa:                     6.3485e-02 
XSr:                     9.3652e-01 
Misc 1:                  4.8032e-03 
Misc 2:                  8.5786e-01 

----------------------------------User print-----------------------------------

Simulation number:                6 
Reaction step number:            66 
SrCO3 added:             6.6000e+00 
Log Sigma pi:           -9.2433e+00 
XAragonite:              1.5564e-03 
XStrontianite:           9.9844e-01 
XCa:                     6.2603e-02 
XSr:                     9.3740e-01 
Misc 1:                  4.8032e-03 
Misc 2:                  8.5786e-01 

----------------------------------User print-----------------------------------

Simulation number:                6 
Reaction step number:            67 
SrCO3 added:             6.7000e+00 
Log Sigma pi:           -9.2437e+00 
XAragonite:              1.5339e-03 
XStrontianite:           9.9847e-01 
XCa:                     6.1745e-02 
XSr:                     9.3825e-01 
Misc 1:                  4.8032e-03 
Misc 2:                  8.5786e-01 

----------------------------------User print-----------------------------------

Simulation number:                6 
Reaction step number:            68 
SrCO3 added:             6.8000e+00 
Log Sigma pi:           -9.2441e+00 
XAragonite:              1.5120e-03 
XStrontianite:           9.9849e-01 
XCa:                     6.0911e-02 
XSr:                     9.3909e-01 
Misc 1:                  4.8032e-03 
Misc 2:                  8.5786e-01 

----------------------------------User print-----------------------------------

Simulation number:                6 
Reaction step number:            69 
SrCO3 added:             6.9000e+00 
Log Sigma pi:           -9.2444e+00 
XAragonite:              1.4907e-03 
XStrontianite:           9.9851e-01 
XCa:                     6.0099e-02 
XSr:                     9.3990e-01 
Misc 1:                  4.8032e-03 
Misc 2:                  8.5786e-01 

----------------------------------User print-----------------------------------

Simulation number:                6 
Reaction step number:            70 
SrCO3 added:                      7 
Log Sigma pi:           -9.2448e+00 
XAragonite:              1.4700e-03 
XStrontianite:           9.9853e-01 
XCa:                     5.9308e-02 
XSr:                     9.4069e-01 
Misc 1:                  4.8032e-03 
Misc 2:                  8.5786e-01 

----------------------------------User print-----------------------------------

Simulation number:                6 
Reaction step number:            71 
SrCO3 added:             7.1000e+00 
Log Sigma pi:           -9.2451e+00 
XAragonite:              1.4498e-03 
XStrontianite:           9.9855e-01 
XCa:                     5.8538e-02 
XSr:                     9.4146e-01 
Misc 1:                  4.8032e-03 
Misc 2:                  8.5786e-01 

----------------------------------User print-----------------------------------

Simulation number:                6 
Reaction step number:            72 
SrCO3 added:             7.2000e+00 
Log Sigma pi:           -9.2455e+00 
XAragonite:              1.4302e-03 
XStrontianite:           9.9857e-01 
XCa:                     5.7787e-02 
XSr:                     9.4221e-01 
Misc 1:                  4.8032e-03 
Misc 2:                  8.5786e-01 

----------------------------------User print-----------------------------------

Simulation number:                6 
Reaction step number:            73 
SrCO3 added:             7.3000e+00 
Log Sigma pi:           -9.2458e+00 
XAragonite:              1.4112e-03 
XStrontianite:           9.9859e-01 
XCa:                     5.7056e-02 
XSr:                     9.4294e-01 
Misc 1:                  4.8032e-03 
Misc 2:                  8.5786e-01 

----------------------------------User print-----------------------------------

Simulation number:                6 
Reaction step number:            74 
SrCO3 added:             7.4000e+00 
Log Sigma pi:           -9.2461e+00 
XAragonite:              1.3926e-03 
XStrontianite:           9.9861e-01 
XCa:                     5.6342e-02 
XSr:                     9.4366e-01 
Misc 1:                  4.8032e-03 
Misc 2:                  8.5786e-01 

----------------------------------User print-----------------------------------

Simulation number:                6 
Reaction step number:            75 
SrCO3 added:             7.5000e+00 
Log Sigma pi:           -9.2464e+00 
XAragonite:              1.3745e-03 
XStrontianite:           9.9863e-01 
XCa:                     5.5647e-02 
XSr:                     9.4435e-01 
Misc 1:                  4.8032e-03 
Misc 2:                  8.5786e-01 

----------------------------------User print-----------------------------------

Simulation number:                6 
Reaction step number:            76 
SrCO3 added:             7.6000e+00 
Log Sigma pi:           -9.2468e+00 
XAragonite:              1.3569e-03 
XStrontianite:           9.9864e-01 
XCa:                     5.4968e-02 
XSr:                     9.4503e-01 
Misc 1:                  4.8032e-03 
Misc 2:                  8.5786e-01 

----------------------------------User print-----------------------------------

Simulation number:                6 
Reaction step number:            77 
SrCO3 added:             7.7000e+00 
Log Sigma pi:           -9.2471e+00 
XAragonite:              1.3397e-03 
XStrontianite:           9.9866e-01 
XCa:                     5.4306e-02 
XSr:                     9.4569e-01 
Misc 1:                  4.8032e-03 
Misc 2:                  8.5786e-01 

----------------------------------User print-----------------------------------

Simulation number:                6 
Reaction step number:            78 
SrCO3 added:             7.8000e+00 
Log Sigma pi:           -9.2474e+00 
XAragonite:              1.3230e-03 
XStrontianite:           9.9868e-01 
XCa:                     5.3660e-02 
XSr:                     9.4634e-01 
Misc 1:                  4.8032e-03 
Misc 2:                  8.5786e-01 

----------------------------------User print-----------------------------------

Simulation number:                6 
Reaction step number:            79 
SrCO3 added:             7.9000e+00 
Log Sigma pi:           -9.2476e+00 
XAragonite:              1.3067e-03 
XStrontianite:           9.9869e-01 
XCa:                     5.3029e-02 
XSr:                     9.4697e-01 
Misc 1:                  4.8032e-03 
Misc 2:                  8.5786e-01 

----------------------------------User print-----------------------------------

Simulation number:                6 
Reaction step number:            80 
SrCO3 added:                      8 
Log Sigma pi:           -9.2479e+00 
XAragonite:              1.2907e-03 
XStrontianite:           9.9871e-01 
XCa:                     5.2412e-02 
XSr:                     9.4759e-01 
Misc 1:                  4.8032e-03 
Misc 2:                  8.5786e-01 

----------------------------------User print-----------------------------------

Simulation number:                6 
Reaction step number:            81 
SrCO3 added:             8.1000e+00 
Log Sigma pi:           -9.2482e+00 
XAragonite:              1.2752e-03 
XStrontianite:           9.9872e-01 
XCa:                     5.1810e-02 
XSr:                     9.4819e-01 
Misc 1:                  4.8032e-03 
Misc 2:                  8.5786e-01 

----------------------------------User print-----------------------------------

Simulation number:                6 
Reaction step number:            82 
SrCO3 added:             8.2000e+00 
Log Sigma pi:           -9.2485e+00 
XAragonite:              1.2600e-03 
XStrontianite:           9.9874e-01 
XCa:                     5.1221e-02 
XSr:                     9.4878e-01 
Misc 1:                  4.8032e-03 
Misc 2:                  8.5786e-01 

----------------------------------User print-----------------------------------

Simulation number:                6 
Reaction step number:            83 
SrCO3 added:             8.3000e+00 
Log Sigma pi:           -9.2487e+00 
XAragonite:              1.2452e-03 
XStrontianite:           9.9875e-01 
XCa:                     5.0646e-02 
XSr:                     9.4935e-01 
Misc 1:                  4.8032e-03 
Misc 2:                  8.5786e-01 

----------------------------------User print-----------------------------------

Simulation number:                6 
Reaction step number:            84 
SrCO3 added:             8.4000e+00 
Log Sigma pi:           -9.2490e+00 
XAragonite:              1.2307e-03 
XStrontianite:           9.9877e-01 
XCa:                     5.0083e-02 
XSr:                     9.4992e-01 
Misc 1:                  4.8032e-03 
Misc 2:                  8.5786e-01 

----------------------------------User print-----------------------------------

Simulation number:                6 
Reaction step number:            85 
SrCO3 added:             8.5000e+00 
Log Sigma pi:           -9.2492e+00 
XAragonite:              1.2166e-03 
XStrontianite:           9.9878e-01 
XCa:                     4.9533e-02 
XSr:                     9.5047e-01 
Misc 1:                  4.8032e-03 
Misc 2:                  8.5786e-01 

----------------------------------User print-----------------------------------

Simulation number:                6 
Reaction step number:            86 
SrCO3 added:             8.6000e+00 
Log Sigma pi:           -9.2495e+00 
XAragonite:              1.2028e-03 
XStrontianite:           9.9880e-01 
XCa:                     4.8995e-02 
XSr:                     9.5101e-01 
Misc 1:                  4.8032e-03 
Misc 2:                  8.5786e-01 

----------------------------------User print-----------------------------------

Simulation number:                6 
Reaction step number:            87 
SrCO3 added:             8.7000e+00 
Log Sigma pi:           -9.2497e+00 
XAragonite:              1.1893e-03 
XStrontianite:           9.9881e-01 
XCa:                     4.8468e-02 
XSr:                     9.5153e-01 
Misc 1:                  4.8032e-03 
Misc 2:                  8.5786e-01 

----------------------------------User print-----------------------------------

Simulation number:                6 
Reaction step number:            88 
SrCO3 added:             8.8000e+00 
Log Sigma pi:           -9.2499e+00 
XAragonite:              1.1760e-03 
XStrontianite:           9.9882e-01 
XCa:                     4.7952e-02 
XSr:                     9.5205e-01 
Misc 1:                  4.8032e-03 
Misc 2:                  8.5786e-01 

----------------------------------User print-----------------------------------

Simulation number:                6 
Reaction step number:            89 
SrCO3 added:             8.9000e+00 
Log Sigma pi:           -9.2502e+00 
XAragonite:              1.1631e-03 
XStrontianite:           9.9884e-01 
XCa:                     4.7448e-02 
XSr:                     9.5255e-01 
Misc 1:                  4.8032e-03 
Misc 2:                  8.5786e-01 

----------------------------------User print-----------------------------------

Simulation number:                6 
Reaction step number:            90 
SrCO3 added:                      9 
Log Sigma pi:           -9.2504e+00 
XAragonite:              1.1505e-03 
XStrontianite:           9.9885e-01 
XCa:                     4.6954e-02 
XSr:                     9.5305e-01 
Misc 1:                  4.8032e-03 
Misc 2:                  8.5786e-01 

----------------------------------User print-----------------------------------

Simulation number:                6 
Reaction step number:            91 
SrCO3 added:             9.1000e+00 
Log Sigma pi:           -9.2506e+00 
XAragonite:              1.1381e-03 
XStrontianite:           9.9886e-01 
XCa:                     4.6470e-02 
XSr:                     9.5353e-01 
Misc 1:                  4.8032e-03 
Misc 2:                  8.5786e-01 

----------------------------------User print-----------------------------------

Simulation number:                6 
Reaction step number:            92 
SrCO3 added:             9.2000e+00 
Log Sigma pi:           -9.2508e+00 
XAragonite:              1.1260e-03 
XStrontianite:           9.9887e-01 
XCa:                     4.5996e-02 
XSr:                     9.5400e-01 
Misc 1:                  4.8032e-03 
Misc 2:                  8.5786e-01 

----------------------------------User print-----------------------------------

Simulation number:                6 
Reaction step number:            93 
SrCO3 added:             9.3000e+00 
Log Sigma pi:           -9.2510e+00 
XAragonite:              1.1142e-03 
XStrontianite:           9.9889e-01 
XCa:                     4.5531e-02 
XSr:                     9.5447e-01 
Misc 1:                  4.8032e-03 
Misc 2:                  8.5786e-01 

----------------------------------User print-----------------------------------

Simulation number:                6 
Reaction step number:            94 
SrCO3 added:             9.4000e+00 
Log Sigma pi:           -9.2512e+00 
XAragonite:              1.1026e-03 
XStrontianite:           9.9890e-01 
XCa:                     4.5076e-02 
XSr:                     9.5492e-01 
Misc 1:                  4.8032e-03 
Misc 2:                  8.5786e-01 

----------------------------------User print-----------------------------------

Simulation number:                6 
Reaction step number:            95 
SrCO3 added:             9.5000e+00 
Log Sigma pi:           -9.2514e+00 
XAragonite:              1.0912e-03 
XStrontianite:           9.9891e-01 
XCa:                     4.4630e-02 
XSr:                     9.5537e-01 
Misc 1:                  4.8032e-03 
Misc 2:                  8.5786e-01 

----------------------------------User print-----------------------------------

Simulation number:                6 
Reaction step number:            96 
SrCO3 added:             9.6000e+00 
Log Sigma pi:           -9.2516e+00 
XAragonite:              1.0801e-03 
XStrontianite:           9.9892e-01 
XCa:                     4.4192e-02 
XSr:                     9.5581e-01 
Misc 1:                  4.8032e-03 
Misc 2:                  8.5786e-01 

----------------------------------User print-----------------------------------

Simulation number:                6 
Reaction step number:            97 
SrCO3 added:             9.7000e+00 
Log Sigma pi:           -9.2518e+00 
XAragonite:              1.0692e-03 
XStrontianite:           9.9893e-01 
XCa:                     4.3763e-02 
XSr:                     9.5624e-01 
Misc 1:                  4.8032e-03 
Misc 2:                  8.5786e-01 

----------------------------------User print-----------------------------------

Simulation number:                6 
Reaction step number:            98 
SrCO3 added:             9.8000e+00 
Log Sigma pi:           -9.2520e+00 
XAragonite:              1.0585e-03 
XStrontianite:           9.9894e-01 
XCa:                     4.3343e-02 
XSr:                     9.5666e-01 
Misc 1:                  4.8032e-03 
Misc 2:                  8.5786e-01 

----------------------------------User print-----------------------------------

Simulation number:                6 
Reaction step number:            99 
SrCO3 added:             9.9000e+00 
Log Sigma pi:           -9.2522e+00 
XAragonite:              1.0480e-03 
XStrontianite:           9.9895e-01 
XCa:                     4.2930e-02 
XSr:                     9.5707e-01 
Misc 1:                  4.8032e-03 
Misc 2:                  8.5786e-01 

----------------------------------User print-----------------------------------

Simulation number:                6 
Reaction step number:           100 
SrCO3 added:                     10 
Log Sigma pi:           -9.2524e+00 
XAragonite:              1.0377e-03 
XStrontianite:           9.9896e-01 
XCa:                     4.2525e-02 
XSr:                     9.5747e-01 
Misc 1:                  4.8032e-03 
Misc 2:                  8.5786e-01 

------------------------------
End of Run after 0.96 Seconds.
------------------------------

