   Input file: ../examples/ex17b
  Output file: ex17b.out
Database file: ../database/pitzer.dat

------------------
Reading data base.
------------------

	SOLUTION_MASTER_SPECIES
	SOLUTION_SPECIES
	PHASES
	PITZER
	EXCHANGE_MASTER_SPECIES
	EXCHANGE_SPECIES
	SURFACE_MASTER_SPECIES
	SURFACE_SPECIES
	END
------------------------------------
Reading input data for simulation 1.
------------------------------------

	SOLUTION 1  Black Sea water
	        units   mg/L
	        density 1.014
	        pH      8.0     # estimated
	        Ca      233
	        Mg      679
	        Na      5820
	        K       193
	        S(6)    1460
	        Cl      10340
	        Br      35
	        C       1       CO2(g) -3.5
	EQUILIBRIUM_PHASES
	 CO2(g) -3.5 10
	 Calcite 0 0
	 Gypsum 0 0
	     Anhydrite 0 0
	  Glauberite 0 0
	  Polyhalite 0 0
	 Epsomite 0 0
	   Kieserite 0 0
	  Hexahydrite 0 0
	 Halite 0 0
	     Bischofite 0 0
	 Carnallite 0 0
	USER_GRAPH Example 17B
	 -head H2O Na K Mg Ca Cl SO4 Calcite Gypsum Anhydrite Halite       Glauberite Polyhalite
	 -init false
	 -axis_scale x_axis 0 100
	 -axis_scale y_axis -5 1. 1
	 -axis_scale sy_axis -5 10 5 100
	 -axis_titles "Concentration factor" "Log(Molality)"  "Log(Moles of solid)"
	 -chart_title "Evaporating Black Sea water"
	 -start
	 10 graph_x 1 / tot("water")
	 20 graph_y log10(tot("Na")), log10(tot("K")), log10(tot("Mg")), log10(tot("Ca")),            log10(tot("Cl")), log10(tot("S"))
	 30 if equi("Calcite") > 1e-5 then graph_sy log10(equi("Calcite")) else graph_sy -5
	 35 if equi("Gypsum") > 1e-5 then graph_sy log10(equi("Gypsum")) else graph_sy -5
	 40 if equi("Anhydrite") > 1e-5 then graph_sy log10(equi("Anhydrite")) else graph_sy -5
	 50 if equi("Halite") > 1e-5 then graph_sy log10(equi("Halite")) else graph_sy -5
	 60 if equi("Glauberite") > 1e-5 then graph_sy log10(equi("Glauberite")) else graph_sy -5
	 70 if equi("Polyhalite") > 1e-5 then graph_sy log10(equi("Polyhalite")) else graph_sy -5
	 80 if STEP_NO > 20 THEN PRINT "x", "Na", "K", "Mg", "Ca", "Cl", "S"
	 90 if STEP_NO > 20 THEN PRINT 1 / tot("water"), (tot("Na")), (tot("K")), (tot("Mg")),                               (tot("Ca")), (tot("Cl")), (tot("S"))
	 -end
	REACTION
	 H2O -1
	 0 36 3*4 6*1 2*0.25 0.176 4*0.05 5*0.03
	INCREMENTAL_REACTIONS true
	END
-------------------------------------------
Beginning of initial solution calculations.
-------------------------------------------

Initial solution 1.	Black Sea water

-----------------------------Solution composition------------------------------

	Elements           Molality       Moles

	Br                4.401e-04   4.401e-04
	C                 7.375e-04   7.375e-04  Equilibrium with CO2(g)
	Ca                5.841e-03   5.841e-03
	Cl                2.930e-01   2.930e-01
	K                 4.960e-03   4.960e-03
	Mg                2.807e-02   2.807e-02
	Na                2.544e-01   2.544e-01
	S(6)              1.527e-02   1.527e-02

----------------------------Description of solution----------------------------

                                       pH  =   8.000    
                                       pe  =   4.000    
      Specific Conductance (µS/cm,  25°C)  = 31375
                          Density (g/cm³)  =   1.01092
                               Volume (L)  =   1.00789
                        Activity of water  =   0.990
                 Ionic strength (mol/kgw)  =   3.751e-01
                       Mass of water (kg)  =   1.000e+00
                 Total alkalinity (eq/kg)  =   7.601e-04
                       Total CO2 (mol/kg)  =   7.375e-04
                         Temperature (°C)  =  25.00
                  Electrical balance (eq)  =   2.359e-03
 Percent error, 100*(Cat-|An|)/(Cat+|An|)  =   0.36
                               Iterations  =   9
                         Gamma iterations  =   3
                      Osmotic coefficient  =   0.89867
                         Density of water  =   0.99704
                                  Total H  = 1.110131e+02
                                  Total O  = 5.556951e+01

----------------------------Distribution of species----------------------------

                                                    MacInnes  MacInnes
                                MacInnes       Log       Log       Log    mole V
   Species          Molality    Activity  Molality  Activity     Gamma   cm³/mol

   OH-             1.669e-06   1.002e-06    -5.777    -5.999    -0.222     -3.15
   H+              1.290e-08   1.000e-08    -7.890    -8.000    -0.110      0.00
   H2O             5.551e+01   9.903e-01     1.744    -0.004     0.000     18.07
Br            4.401e-04
   Br-             4.401e-04   3.007e-04    -3.356    -3.522    -0.165     25.17
C(4)          7.375e-04
   HCO3-           6.974e-04   4.854e-04    -3.157    -3.314    -0.157     25.91
   CO3-2           1.577e-05   2.223e-06    -4.802    -5.653    -0.851     -1.35
   MgCO3           1.412e-05   1.412e-05    -4.850    -4.850     0.000    -17.09
   CO2             1.018e-05   1.076e-05    -4.992    -4.968     0.024     34.43
Ca            5.841e-03
   Ca+2            5.841e-03   1.446e-03    -2.233    -2.840    -0.606    -16.97
Cl            2.930e-01
   Cl-             2.930e-01   1.964e-01    -0.533    -0.707    -0.174     18.61
K             4.960e-03
   K+              4.960e-03   3.419e-03    -2.305    -2.466    -0.162      9.48
Mg            2.807e-02
   Mg+2            2.805e-02   7.498e-03    -1.552    -2.125    -0.573    -20.69
   MgCO3           1.412e-05   1.412e-05    -4.850    -4.850     0.000    -17.09
   MgOH+           1.241e-06   1.153e-06    -5.906    -5.938    -0.032     (0)  
Na            2.544e-01
   Na+             2.544e-01   1.837e-01    -0.595    -0.736    -0.141     -0.74
S(6)          1.527e-02
   SO4-2           1.527e-02   2.084e-03    -1.816    -2.681    -0.865     17.32
   HSO4-           2.901e-09   1.985e-09    -8.537    -8.702    -0.165     40.79

------------------------------Saturation indices-------------------------------

  Phase               SI** log IAP   log K(298 K,   1 atm)

  Anhydrite        -1.27     -5.52   -4.25  CaSO4
  Aragonite        -0.27     -8.49   -8.22  CaCO3
  Arcanite         -5.73     -7.61   -1.88  K2SO4
  Artinite         -3.25     16.41   19.66  Mg2CO3(OH)2:3H2O
  Bischofite       -8.16     -3.56    4.59  MgCl2:6H2O
  Bloedite         -6.63     -8.98   -2.35  Na2Mg(SO4)2:4H2O
  Brucite          -3.24    -14.12  -10.88  Mg(OH)2
  Burkeite        -14.66    -15.43   -0.77  Na6CO3(SO4)2
  Calcite           0.01     -8.49   -8.50  CaCO3
  Carnallite      -11.16     -6.74    4.42  KMgCl3:6H2O
  CO2(g)           -3.50     -4.97   -1.47  CO2	 Pressure   0.0 atm, phi 1.000
  Dolomite          0.81    -16.27  -17.08  CaMg(CO3)2
  Epsomite         -2.99     -4.84   -1.85  MgSO4:7H2O
  Gaylussite       -6.22    -15.64   -9.42  CaNa2(CO3)2:5H2O
  Glaserite        -9.69    -13.50   -3.80  NaK3(SO4)2
  Glauberite       -4.32     -9.67   -5.35  Na2Ca(SO4)2
  Goergeyite       -5.85    -35.22  -29.37  K2Ca5(SO4)6H2O
  Gypsum           -0.93     -5.53   -4.60  CaSO4:2H2O
  H2O(g)           -1.51     -0.00    1.50  H2O
  Halite           -3.02     -1.44    1.58  NaCl
  Hexahydrite      -3.26     -4.83   -1.57  MgSO4:6H2O
  Huntite          -0.71      9.53   10.24  CaMg3(CO3)4
  Kainite          -7.80     -7.99   -0.19  KMgClSO4:3H2O
  Kalicinite       -6.18    -16.12   -9.94  KHCO3
  Kieserite        -4.54     -4.81   -0.27  MgSO4:H2O
  Labile_S         -8.16    -13.83   -5.67  Na4Ca(SO4)3:2H2O
  Leonhardite      -3.94     -4.82   -0.89  MgSO4:4H2O
  Leonite          -8.46    -12.44   -3.98  K2Mg(SO4)2:4H2O
  Magnesite         0.06     -7.78   -7.83  MgCO3
  MgCl2_2H2O      -18.10     -3.55   14.56  MgCl2:2H2O
  MgCl2_4H2O      -10.53     -3.56    6.98  MgCl2:4H2O
  Mirabilite       -2.96     -4.20   -1.24  Na2SO4:10H2O
  Misenite        -75.69    -86.50  -10.81  K8H6(SO4)7
  Nahcolite        -3.65    -14.39  -10.74  NaHCO3
  Natron           -6.34     -7.17   -0.82  Na2CO3:10H2O
  Nesquehonite     -2.62     -7.79   -5.17  MgCO3:3H2O
  Pentahydrite     -3.54     -4.83   -1.28  MgSO4:5H2O
  Pirssonite       -6.39    -15.63   -9.23  Na2Ca(CO3)2:2H2O
  Polyhalite       -9.73    -23.47  -13.74  K2MgCa2(SO4)4:2H2O
  Portlandite      -9.65    -14.84   -5.19  Ca(OH)2
  Schoenite        -8.12    -12.44   -4.33  K2Mg(SO4)2:6H2O
  Sylvite          -4.07     -3.17    0.90  KCl
  Syngenite        -6.71    -13.14   -6.43  K2Ca(SO4)2:H2O
  Thenardite       -3.85     -4.15   -0.30  Na2SO4
  Trona           -10.14    -21.52  -11.38  Na3H(CO3)2:2H2O

**For a gas, SI = log10(fugacity). Fugacity = pressure * phi / 1 atm.
  For ideal gases, phi = 1.

-----------------------------------------
Beginning of batch-reaction calculations.
-----------------------------------------

Reaction step 1.

Using solution 1.	Black Sea water
Using pure phase assemblage 1.	
Using reaction 1.	

Reaction 1.	

	  0.000e+00 moles of the following reaction have been added:

	                 Relative
	Reactant            moles

	H2O                 -1.00000

	                 Relative
	Element             moles
	H                   -2.00000
	O                   -1.00000

-------------------------------Phase assemblage--------------------------------

                                                      Moles in assemblage
Phase               SI  log IAP  log K(T, P)   Initial       Final       Delta

Anhydrite        -1.27    -5.52     -4.25    0.000e+00           0   0.000e+00
Bischofite       -8.16    -3.56      4.59    0.000e+00           0   0.000e+00
CO2(g)           -3.50    -4.97     -1.47    1.000e+01   1.000e+01   3.300e-06
Calcite           0.00    -8.50     -8.50    0.000e+00   3.893e-06   3.893e-06
Carnallite      -11.16    -6.74      4.42    0.000e+00           0   0.000e+00
Epsomite         -2.99    -4.84     -1.85    0.000e+00           0   0.000e+00
Glauberite       -4.32    -9.67     -5.35    0.000e+00           0   0.000e+00
Gypsum           -0.93    -5.53     -4.60    0.000e+00           0   0.000e+00
Halite           -3.02    -1.44      1.58    0.000e+00           0   0.000e+00
Hexahydrite      -3.26    -4.83     -1.57    0.000e+00           0   0.000e+00
Kieserite        -4.54    -4.81     -0.27    0.000e+00           0   0.000e+00
Polyhalite       -9.73   -23.47    -13.74    0.000e+00           0   0.000e+00

-----------------------------Solution composition------------------------------

	Elements           Molality       Moles

	Br                4.401e-04   4.401e-04
	C                 7.303e-04   7.303e-04
	Ca                5.837e-03   5.837e-03
	Cl                2.930e-01   2.930e-01
	K                 4.960e-03   4.960e-03
	Mg                2.807e-02   2.807e-02
	Na                2.544e-01   2.544e-01
	S                 1.527e-02   1.527e-02

----------------------------Description of solution----------------------------

                                       pH  =   7.996      Charge balance
                                       pe  =   4.000      Adjusted to redox equilibrium
      Specific Conductance (µS/cm,  25°C)  = 31375
                          Density (g/cm³)  =   1.01092
                               Volume (L)  =   1.00789
                        Activity of water  =   0.990
                 Ionic strength (mol/kgw)  =   3.751e-01
                       Mass of water (kg)  =   1.000e+00
                 Total alkalinity (eq/kg)  =   7.523e-04
                       Total CO2 (mol/kg)  =   7.303e-04
                         Temperature (°C)  =  25.00
                  Electrical balance (eq)  =   2.359e-03
 Percent error, 100*(Cat-|An|)/(Cat+|An|)  =   0.36
                               Iterations  =   3
                         Gamma iterations  =   2
                      Osmotic coefficient  =   0.89867
                         Density of water  =   0.99704
                                  Total H  = 1.110131e+02
                                  Total O  = 5.556949e+01

----------------------------Distribution of species----------------------------

                                                    MacInnes  MacInnes
                                MacInnes       Log       Log       Log    mole V
   Species          Molality    Activity  Molality  Activity     Gamma   cm³/mol

   OH-             1.653e-06   9.928e-07    -5.782    -6.003    -0.222     -3.15
   H+              1.302e-08   1.010e-08    -7.885    -7.996    -0.110      0.00
   H2O             5.551e+01   9.903e-01     1.744    -0.004     0.000     18.07
Br            4.401e-04
   Br-             4.401e-04   3.007e-04    -3.356    -3.522    -0.165     25.17
C(4)          7.303e-04
   HCO3-           6.908e-04   4.808e-04    -3.161    -3.318    -0.157     25.91
   CO3-2           1.547e-05   2.181e-06    -4.810    -5.661    -0.851     -1.35
   MgCO3           1.386e-05   1.386e-05    -4.858    -4.858     0.000    -17.09
   CO2             1.018e-05   1.076e-05    -4.992    -4.968     0.024     34.43
Ca            5.837e-03
   Ca+2            5.837e-03   1.445e-03    -2.234    -2.840    -0.606    -16.97
Cl            2.930e-01
   Cl-             2.930e-01   1.964e-01    -0.533    -0.707    -0.174     18.61
K             4.960e-03
   K+              4.960e-03   3.419e-03    -2.305    -2.466    -0.162      9.48
Mg            2.807e-02
   Mg+2            2.806e-02   7.498e-03    -1.552    -2.125    -0.573    -20.69
   MgCO3           1.386e-05   1.386e-05    -4.858    -4.858     0.000    -17.09
   MgOH+           1.229e-06   1.142e-06    -5.910    -5.942    -0.032     (0)  
Na            2.544e-01
   Na+             2.544e-01   1.837e-01    -0.595    -0.736    -0.141     -0.74
S(6)          1.527e-02
   SO4-2           1.527e-02   2.084e-03    -1.816    -2.681    -0.865     17.32
   HSO4-           2.929e-09   2.004e-09    -8.533    -8.698    -0.165     40.79

------------------------------Saturation indices-------------------------------

  Phase               SI** log IAP   log K(298 K,   1 atm)

  Anhydrite        -1.27     -5.52   -4.25  CaSO4
  Aragonite        -0.28     -8.50   -8.22  CaCO3
  Arcanite         -5.73     -7.61   -1.88  K2SO4
  Artinite         -3.26     16.40   19.66  Mg2CO3(OH)2:3H2O
  Bischofite       -8.16     -3.56    4.59  MgCl2:6H2O
  Bloedite         -6.63     -8.98   -2.35  Na2Mg(SO4)2:4H2O
  Brucite          -3.25    -14.13  -10.88  Mg(OH)2
  Burkeite        -14.67    -15.44   -0.77  Na6CO3(SO4)2
  Calcite           0.00     -8.50   -8.50  CaCO3
  Carnallite      -11.16     -6.74    4.42  KMgCl3:6H2O
  CO2(g)           -3.50     -4.97   -1.47  CO2	 Pressure   0.0 atm, phi 1.000
  Dolomite          0.80    -16.29  -17.08  CaMg(CO3)2
  Epsomite         -2.99     -4.84   -1.85  MgSO4:7H2O
  Gaylussite       -6.23    -15.66   -9.42  CaNa2(CO3)2:5H2O
  Glaserite        -9.69    -13.50   -3.80  NaK3(SO4)2
  Glauberite       -4.32     -9.67   -5.35  Na2Ca(SO4)2
  Goergeyite       -5.85    -35.22  -29.37  K2Ca5(SO4)6H2O
  Gypsum           -0.93     -5.53   -4.60  CaSO4:2H2O
  H2O(g)           -1.51     -0.00    1.50  H2O
  Halite           -3.02     -1.44    1.58  NaCl
  Hexahydrite      -3.26     -4.83   -1.57  MgSO4:6H2O
  Huntite          -0.75      9.50   10.24  CaMg3(CO3)4
  Kainite          -7.80     -7.99   -0.19  KMgClSO4:3H2O
  Kalicinite       -6.18    -16.12   -9.94  KHCO3
  Kieserite        -4.54     -4.81   -0.27  MgSO4:H2O
  Labile_S         -8.16    -13.84   -5.67  Na4Ca(SO4)3:2H2O
  Leonhardite      -3.94     -4.82   -0.89  MgSO4:4H2O
  Leonite          -8.46    -12.44   -3.98  K2Mg(SO4)2:4H2O
  Magnesite         0.05     -7.79   -7.83  MgCO3
  MgCl2_2H2O      -18.10     -3.55   14.56  MgCl2:2H2O
  MgCl2_4H2O      -10.53     -3.56    6.98  MgCl2:4H2O
  Mirabilite       -2.96     -4.20   -1.24  Na2SO4:10H2O
  Misenite        -75.67    -86.47  -10.81  K8H6(SO4)7
  Nahcolite        -3.65    -14.39  -10.74  NaHCO3
  Natron           -6.35     -7.18   -0.82  Na2CO3:10H2O
  Nesquehonite     -2.63     -7.80   -5.17  MgCO3:3H2O
  Pentahydrite     -3.54     -4.83   -1.28  MgSO4:5H2O
  Pirssonite       -6.41    -15.64   -9.23  Na2Ca(CO3)2:2H2O
  Polyhalite       -9.73    -23.47  -13.74  K2MgCa2(SO4)4:2H2O
  Portlandite      -9.66    -14.85   -5.19  Ca(OH)2
  Schoenite        -8.12    -12.44   -4.33  K2Mg(SO4)2:6H2O
  Sylvite          -4.07     -3.17    0.90  KCl
  Syngenite        -6.71    -13.14   -6.43  K2Ca(SO4)2:H2O
  Thenardite       -3.85     -4.15   -0.30  Na2SO4
  Trona           -10.15    -21.53  -11.38  Na3H(CO3)2:2H2O

**For a gas, SI = log10(fugacity). Fugacity = pressure * phi / 1 atm.
  For ideal gases, phi = 1.

Reaction step 2.

Using solution 1.	Black Sea water
Using pure phase assemblage 1.	
Using reaction 1.	

Reaction 1.	

	  3.600e+01 moles of the following reaction have been added:

	                 Relative
	Reactant            moles

	H2O                 -1.00000

	                 Relative
	Element             moles
	H                   -2.00000
	O                   -1.00000

-------------------------------Phase assemblage--------------------------------

                                                      Moles in assemblage
Phase               SI  log IAP  log K(T, P)   Initial       Final       Delta

Anhydrite        -0.77    -5.02     -4.25    0.000e+00           0   0.000e+00
Bischofite       -6.95    -2.36      4.59    0.000e+00           0   0.000e+00
CO2(g)           -3.50    -4.97     -1.47    1.000e+01   1.000e+01   2.551e-04
Calcite           0.00    -8.50     -8.50    3.893e-06   2.723e-04   2.684e-04
Carnallite       -9.13    -4.71      4.42    0.000e+00           0   0.000e+00
Epsomite         -2.50    -4.35     -1.85    0.000e+00           0   0.000e+00
Glauberite       -2.83    -8.18     -5.35    0.000e+00           0   0.000e+00
Gypsum           -0.44    -5.04     -4.60    0.000e+00           0   0.000e+00
Halite           -2.17    -0.59      1.58    0.000e+00           0   0.000e+00
Hexahydrite      -2.77    -4.34     -1.57    0.000e+00           0   0.000e+00
Kieserite        -4.01    -4.28     -0.27    0.000e+00           0   0.000e+00
Polyhalite       -7.26   -21.00    -13.74    0.000e+00           0   0.000e+00

-----------------------------Solution composition------------------------------

	Elements           Molality       Moles

	Br                1.252e-03   4.401e-04
	C                 5.884e-04   2.068e-04
	Ca                1.585e-02   5.569e-03
	Cl                8.339e-01   2.930e-01
	K                 1.411e-02   4.960e-03
	Mg                7.987e-02   2.807e-02
	Na                7.238e-01   2.544e-01
	S                 4.345e-02   1.527e-02

----------------------------Description of solution----------------------------

                                       pH  =   7.801      Charge balance
                                       pe  =   4.000      Adjusted to redox equilibrium
      Specific Conductance (µS/cm,  25°C)  = 70415
                          Density (g/cm³)  =   1.03527
                               Volume (L)  =   0.35767
                        Activity of water  =   0.972
                 Ionic strength (mol/kgw)  =   1.065e+00
                       Mass of water (kg)  =   3.514e-01
                 Total alkalinity (eq/kg)  =   6.131e-04
                       Total CO2 (mol/kg)  =   5.884e-04
                         Temperature (°C)  =  25.00
                  Electrical balance (eq)  =   2.359e-03
 Percent error, 100*(Cat-|An|)/(Cat+|An|)  =   0.36
                               Iterations  =  14
                         Gamma iterations  =   3
                      Osmotic coefficient  =   0.91503
                         Density of water  =   0.99704
                                  Total H  = 3.901313e+01
                                  Total O  = 1.956817e+01

----------------------------Distribution of species----------------------------

                                                    MacInnes  MacInnes
                                MacInnes       Log       Log       Log    mole V
   Species          Molality    Activity  Molality  Activity     Gamma   cm³/mol

   OH-             1.323e-06   6.219e-07    -5.878    -6.206    -0.328     -2.00
   H+              1.804e-08   1.582e-08    -7.744    -7.801    -0.057      0.00
   H2O             5.551e+01   9.722e-01     1.744    -0.012     0.000     18.07
Br            1.252e-03
   Br-             1.252e-03   7.919e-04    -2.902    -3.101    -0.199     25.47
C(4)          5.884e-04
   HCO3-           5.487e-04   3.012e-04    -3.261    -3.521    -0.260     27.45
   CO3-2           1.542e-05   8.715e-07    -4.812    -6.060    -1.248      0.62
   MgCO3           1.516e-05   1.516e-05    -4.819    -4.819     0.000    -17.09
   CO2             9.195e-06   1.076e-05    -5.036    -4.968     0.068     34.43
Ca            1.585e-02
   Ca+2            1.585e-02   3.617e-03    -1.800    -2.442    -0.642    -16.43
Cl            8.339e-01
   Cl-             8.339e-01   5.010e-01    -0.079    -0.300    -0.221     18.97
K             1.411e-02
   K+              1.411e-02   8.943e-03    -1.850    -2.049    -0.198      9.88
Mg            7.987e-02
   Mg+2            7.986e-02   2.053e-02    -1.098    -1.688    -0.590    -20.14
   MgCO3           1.516e-05   1.516e-05    -4.819    -4.819     0.000    -17.09
   MgOH+           1.983e-06   1.958e-06    -5.703    -5.708    -0.006     (0)  
Na            7.238e-01
   Na+             7.238e-01   5.140e-01    -0.140    -0.289    -0.149     -0.27
S(6)          4.345e-02
   SO4-2           4.345e-02   2.642e-03    -1.362    -2.578    -1.216     19.41
   HSO4-           6.518e-09   3.983e-09    -8.186    -8.400    -0.214     41.13

------------------------------Saturation indices-------------------------------

  Phase               SI** log IAP   log K(298 K,   1 atm)

  Anhydrite        -0.77     -5.02   -4.25  CaSO4
  Aragonite        -0.28     -8.50   -8.22  CaCO3
  Arcanite         -4.80     -6.68   -1.88  K2SO4
  Artinite         -3.22     16.44   19.66  Mg2CO3(OH)2:3H2O
  Bischofite       -6.95     -2.36    4.59  MgCl2:6H2O
  Bloedite         -5.12     -7.47   -2.35  Na2Mg(SO4)2:4H2O
  Brucite          -3.22    -14.10  -10.88  Mg(OH)2
  Burkeite        -12.18    -12.95   -0.77  Na6CO3(SO4)2
  Calcite           0.00     -8.50   -8.50  CaCO3
  Carnallite       -9.13     -4.71    4.42  KMgCl3:6H2O
  CO2(g)           -3.50     -4.97   -1.47  CO2	 Pressure   0.0 atm, phi 1.000
  Dolomite          0.83    -16.25  -17.08  CaMg(CO3)2
  Epsomite         -2.50     -4.35   -1.85  MgSO4:7H2O
  Gaylussite       -5.78    -15.20   -9.42  CaNa2(CO3)2:5H2O
  Glaserite        -7.79    -11.59   -3.80  NaK3(SO4)2
  Glauberite       -2.83     -8.18   -5.35  Na2Ca(SO4)2
  Goergeyite       -2.42    -31.79  -29.37  K2Ca5(SO4)6H2O
  Gypsum           -0.44     -5.04   -4.60  CaSO4:2H2O
  H2O(g)           -1.52     -0.01    1.50  H2O
  Halite           -2.17     -0.59    1.58  NaCl
  Hexahydrite      -2.77     -4.34   -1.57  MgSO4:6H2O
  Huntite          -0.63      9.61   10.24  CaMg3(CO3)4
  Kainite          -6.46     -6.65   -0.19  KMgClSO4:3H2O
  Kalicinite       -5.97    -15.91   -9.94  KHCO3
  Kieserite        -4.01     -4.28   -0.27  MgSO4:H2O
  Labile_S         -5.68    -11.36   -5.67  Na4Ca(SO4)3:2H2O
  Leonhardite      -3.43     -4.31   -0.89  MgSO4:4H2O
  Leonite          -7.01    -10.99   -3.98  K2Mg(SO4)2:4H2O
  Magnesite         0.09     -7.75   -7.83  MgCO3
  MgCl2_2H2O      -16.87     -2.31   14.56  MgCl2:2H2O
  MgCl2_4H2O       -9.32     -2.34    6.98  MgCl2:4H2O
  Mirabilite       -2.04     -3.28   -1.24  Na2SO4:10H2O
  Misenite        -70.43    -81.24  -10.81  K8H6(SO4)7
  Nahcolite        -3.41    -14.15  -10.74  NaHCO3
  Natron           -5.94     -6.76   -0.82  Na2CO3:10H2O
  Nesquehonite     -2.62     -7.78   -5.17  MgCO3:3H2O
  Pentahydrite     -3.04     -4.33   -1.28  MgSO4:5H2O
  Pirssonite       -5.93    -15.16   -9.23  Na2Ca(CO3)2:2H2O
  Polyhalite       -7.26    -21.00  -13.74  K2MgCa2(SO4)4:2H2O
  Portlandite      -9.66    -14.85   -5.19  Ca(OH)2
  Schoenite        -6.69    -11.01   -4.33  K2Mg(SO4)2:6H2O
  Sylvite          -3.25     -2.35    0.90  KCl
  Syngenite        -5.28    -11.71   -6.43  K2Ca(SO4)2:H2O
  Thenardite       -2.86     -3.16   -0.30  Na2SO4
  Trona            -9.43    -20.81  -11.38  Na3H(CO3)2:2H2O

**For a gas, SI = log10(fugacity). Fugacity = pressure * phi / 1 atm.
  For ideal gases, phi = 1.

Reaction step 3.

Using solution 1.	Black Sea water
Using pure phase assemblage 1.	
Using reaction 1.	

Reaction 1.	

	  4.000e+00 moles of the following reaction have been added:

	                 Relative
	Reactant            moles

	H2O                 -1.00000

	                 Relative
	Element             moles
	H                   -2.00000
	O                   -1.00000

-------------------------------Phase assemblage--------------------------------

                                                      Moles in assemblage
Phase               SI  log IAP  log K(T, P)   Initial       Final       Delta

Anhydrite        -0.65    -4.90     -4.25    0.000e+00           0   0.000e+00
Bischofite       -6.67    -2.08      4.59    0.000e+00           0   0.000e+00
CO2(g)           -3.50    -4.97     -1.47    1.000e+01   1.000e+01   2.582e-05
Calcite           0.00    -8.50     -8.50    2.723e-04   2.997e-04   2.738e-05
Carnallite       -8.66    -4.24      4.42    0.000e+00           0   0.000e+00
Epsomite         -2.40    -4.24     -1.85    0.000e+00           0   0.000e+00
Glauberite       -2.49    -7.84     -5.35    0.000e+00           0   0.000e+00
Gypsum           -0.33    -4.93     -4.60    0.000e+00           0   0.000e+00
Halite           -1.97    -0.39      1.58    0.000e+00           0   0.000e+00
Hexahydrite      -2.66    -4.23     -1.57    0.000e+00           0   0.000e+00
Kieserite        -3.88    -4.15     -0.27    0.000e+00           0   0.000e+00
Polyhalite       -6.70   -20.44    -13.74    0.000e+00           0   0.000e+00

-----------------------------Solution composition------------------------------

	Elements           Molality       Moles

	Br                1.575e-03   4.401e-04
	C                 5.498e-04   1.536e-04
	Ca                1.984e-02   5.541e-03
	Cl                1.049e+00   2.930e-01
	K                 1.775e-02   4.960e-03
	Mg                1.005e-01   2.807e-02
	Na                9.105e-01   2.544e-01
	S                 5.466e-02   1.527e-02

----------------------------Description of solution----------------------------

                                       pH  =   7.745      Charge balance
                                       pe  =   4.000      Adjusted to redox equilibrium
      Specific Conductance (µS/cm,  25°C)  = 82815
                          Density (g/cm³)  =   1.04464
                               Volume (L)  =   0.28547
                        Activity of water  =   0.965
                 Ionic strength (mol/kgw)  =   1.340e+00
                       Mass of water (kg)  =   2.794e-01
                 Total alkalinity (eq/kg)  =   5.752e-04
                       Total CO2 (mol/kg)  =   5.498e-04
                         Temperature (°C)  =  25.00
                  Electrical balance (eq)  =   2.359e-03
 Percent error, 100*(Cat-|An|)/(Cat+|An|)  =   0.36
                               Iterations  =   7
                         Gamma iterations  =   3
                      Osmotic coefficient  =   0.92645
                         Density of water  =   0.99704
                                  Total H  = 3.101313e+01
                                  Total O  = 1.556804e+01

----------------------------Distribution of species----------------------------

                                                    MacInnes  MacInnes
                                MacInnes       Log       Log       Log    mole V
   Species          Molality    Activity  Molality  Activity     Gamma   cm³/mol

   OH-             1.237e-06   5.433e-07    -5.908    -6.265    -0.357     -1.59
   H+              1.911e-08   1.797e-08    -7.719    -7.745    -0.027      0.00
   H2O             5.551e+01   9.647e-01     1.744    -0.016     0.000     18.07
Br            1.575e-03
   Br-             1.575e-03   9.887e-04    -2.803    -3.005    -0.202     25.56
C(4)          5.498e-04
   HCO3-           5.102e-04   2.631e-04    -3.292    -3.580    -0.288     28.02
   MgCO3           1.551e-05   1.551e-05    -4.809    -4.809     0.000    -17.09
   CO3-2           1.526e-05   6.704e-07    -4.817    -6.174    -1.357      1.25
   CO2             8.831e-06   1.076e-05    -5.054    -4.968     0.086     34.43
Ca            1.984e-02
   Ca+2            1.984e-02   4.701e-03    -1.703    -2.328    -0.625    -16.27
Cl            1.049e+00
   Cl-             1.049e+00   6.177e-01     0.021    -0.209    -0.230     19.08
K             1.775e-02
   K+              1.775e-02   1.111e-02    -1.751    -1.954    -0.203     10.02
Mg            1.005e-01
   Mg+2            1.005e-01   2.730e-02    -0.998    -1.564    -0.566    -19.97
   MgCO3           1.551e-05   1.551e-05    -4.809    -4.809     0.000    -17.09
   MgOH+           2.307e-06   2.275e-06    -5.637    -5.643    -0.006     (0)  
Na            9.105e-01
   Na+             9.105e-01   6.552e-01    -0.041    -0.184    -0.143     -0.14
S(6)          5.466e-02
   SO4-2           5.466e-02   2.684e-03    -1.262    -2.571    -1.309     20.03
   HSO4-           7.722e-09   4.594e-09    -8.112    -8.338    -0.226     41.22

------------------------------Saturation indices-------------------------------

  Phase               SI** log IAP   log K(298 K,   1 atm)

  Anhydrite        -0.65     -4.90   -4.25  CaSO4
  Aragonite        -0.28     -8.50   -8.22  CaCO3
  Arcanite         -4.60     -6.48   -1.88  K2SO4
  Artinite         -3.21     16.45   19.66  Mg2CO3(OH)2:3H2O
  Bischofite       -6.67     -2.08    4.59  MgCl2:6H2O
  Bloedite         -4.79     -7.14   -2.35  Na2Mg(SO4)2:4H2O
  Brucite          -3.21    -14.09  -10.88  Mg(OH)2
  Burkeite        -11.65    -12.42   -0.77  Na6CO3(SO4)2
  Calcite           0.00     -8.50   -8.50  CaCO3
  Carnallite       -8.66     -4.24    4.42  KMgCl3:6H2O
  CO2(g)           -3.50     -4.97   -1.47  CO2	 Pressure   0.0 atm, phi 1.000
  Dolomite          0.84    -16.24  -17.08  CaMg(CO3)2
  Epsomite         -2.40     -4.24   -1.85  MgSO4:7H2O
  Gaylussite       -5.70    -15.12   -9.42  CaNa2(CO3)2:5H2O
  Glaserite        -7.39    -11.19   -3.80  NaK3(SO4)2
  Glauberite       -2.49     -7.84   -5.35  Na2Ca(SO4)2
  Goergeyite       -1.62    -30.99  -29.37  K2Ca5(SO4)6H2O
  Gypsum           -0.33     -4.93   -4.60  CaSO4:2H2O
  H2O(g)           -1.52     -0.02    1.50  H2O
  Halite           -1.97     -0.39    1.58  NaCl
  Hexahydrite      -2.66     -4.23   -1.57  MgSO4:6H2O
  Huntite          -0.60      9.64   10.24  CaMg3(CO3)4
  Kainite          -6.15     -6.35   -0.19  KMgClSO4:3H2O
  Kalicinite       -5.93    -15.87   -9.94  KHCO3
  Kieserite        -3.88     -4.15   -0.27  MgSO4:H2O
  Labile_S         -5.14    -10.81   -5.67  Na4Ca(SO4)3:2H2O
  Leonhardite      -3.31     -4.20   -0.89  MgSO4:4H2O
  Leonite          -6.70    -10.68   -3.98  K2Mg(SO4)2:4H2O
  Magnesite         0.10     -7.74   -7.83  MgCO3
  MgCl2_2H2O      -16.57     -2.01   14.56  MgCl2:2H2O
  MgCl2_4H2O       -9.02     -2.04    6.98  MgCl2:4H2O
  Mirabilite       -1.85     -3.09   -1.24  Na2SO4:10H2O
  Misenite        -69.30    -80.10  -10.81  K8H6(SO4)7
  Nahcolite        -3.36    -14.10  -10.74  NaHCO3
  Natron           -5.87     -6.70   -0.82  Na2CO3:10H2O
  Nesquehonite     -2.62     -7.78   -5.17  MgCO3:3H2O
  Pentahydrite     -2.93     -4.21   -1.28  MgSO4:5H2O
  Pirssonite       -5.84    -15.07   -9.23  Na2Ca(CO3)2:2H2O
  Polyhalite       -6.70    -20.44  -13.74  K2MgCa2(SO4)4:2H2O
  Portlandite      -9.67    -14.86   -5.19  Ca(OH)2
  Schoenite        -6.38    -10.71   -4.33  K2Mg(SO4)2:6H2O
  Sylvite          -3.06     -2.16    0.90  KCl
  Syngenite        -4.96    -11.39   -6.43  K2Ca(SO4)2:H2O
  Thenardite       -2.64     -2.94   -0.30  Na2SO4
  Trona            -9.29    -20.67  -11.38  Na3H(CO3)2:2H2O

**For a gas, SI = log10(fugacity). Fugacity = pressure * phi / 1 atm.
  For ideal gases, phi = 1.

Reaction step 4.

Using solution 1.	Black Sea water
Using pure phase assemblage 1.	
Using reaction 1.	

Reaction 1.	

	  4.000e+00 moles of the following reaction have been added:

	                 Relative
	Reactant            moles

	H2O                 -1.00000

	                 Relative
	Element             moles
	H                   -2.00000
	O                   -1.00000

-------------------------------Phase assemblage--------------------------------

                                                      Moles in assemblage
Phase               SI  log IAP  log K(T, P)   Initial       Final       Delta

Anhydrite        -0.48    -4.73     -4.25    0.000e+00           0   0.000e+00
Bischofite       -6.28    -1.68      4.59    0.000e+00           0   0.000e+00
CO2(g)           -3.50    -4.97     -1.47    1.000e+01   1.000e+01   2.489e-05
Calcite           0.00    -8.50     -8.50    2.997e-04   3.262e-04   2.648e-05
Carnallite       -8.02    -3.60      4.42    0.000e+00           0   0.000e+00
Epsomite         -2.25    -4.10     -1.85    0.000e+00           0   0.000e+00
Glauberite       -2.03    -7.38     -5.35    0.000e+00           0   0.000e+00
Gypsum           -0.17    -4.77     -4.60    0.000e+00           0   0.000e+00
Halite           -1.71    -0.13      1.58    0.000e+00           0   0.000e+00
Hexahydrite      -2.51    -4.08     -1.57    0.000e+00           0   0.000e+00
Kieserite        -3.70    -3.97     -0.27    0.000e+00           0   0.000e+00
Polyhalite       -5.94   -19.68    -13.74    0.000e+00           0   0.000e+00

-----------------------------Solution composition------------------------------

	Elements           Molality       Moles

	Br                2.123e-03   4.401e-04
	C                 4.931e-04   1.022e-04
	Ca                2.660e-02   5.515e-03
	Cl                1.414e+00   2.930e-01
	K                 2.393e-02   4.960e-03
	Mg                1.354e-01   2.807e-02
	Na                1.227e+00   2.544e-01
	S                 7.367e-02   1.527e-02

----------------------------Description of solution----------------------------

                                       pH  =   7.663      Charge balance
                                       pe  =   4.000      Adjusted to redox equilibrium
      Specific Conductance (µS/cm,  25°C)  = 102858
                          Density (g/cm³)  =   1.06016
                               Volume (L)  =   0.21331
                        Activity of water  =   0.952
                 Ionic strength (mol/kgw)  =   1.805e+00
                       Mass of water (kg)  =   2.073e-01
                 Total alkalinity (eq/kg)  =   5.197e-04
                       Total CO2 (mol/kg)  =   4.931e-04
                         Temperature (°C)  =  25.00
                  Electrical balance (eq)  =   2.359e-03
 Percent error, 100*(Cat-|An|)/(Cat+|An|)  =   0.36
                               Iterations  =   9
                         Gamma iterations  =   3
                      Osmotic coefficient  =   0.94910
                         Density of water  =   0.99704
                                  Total H  = 2.301313e+01
                                  Total O  = 1.156791e+01

----------------------------Distribution of species----------------------------

                                                    MacInnes  MacInnes
                                MacInnes       Log       Log       Log    mole V
   Species          Molality    Activity  Molality  Activity     Gamma   cm³/mol

   OH-             1.110e-06   4.428e-07    -5.955    -6.354    -0.399     -0.90
   H+              2.030e-08   2.175e-08    -7.692    -7.663     0.030      0.00
   H2O             5.551e+01   9.516e-01     1.744    -0.022     0.000     18.07
Br            2.123e-03
   Br-             2.123e-03   1.333e-03    -2.673    -2.875    -0.202     25.67
C(4)          4.931e-04
   HCO3-           4.540e-04   2.145e-04    -3.343    -3.669    -0.326     28.97
   MgCO3           1.611e-05   1.611e-05    -4.793    -4.793     0.000    -17.09
   CO3-2           1.473e-05   4.515e-07    -4.832    -6.345    -1.514      2.21
   CO2             8.248e-06   1.076e-05    -5.084    -4.968     0.115     34.43
Ca            2.660e-02
   Ca+2            2.660e-02   6.981e-03    -1.575    -2.156    -0.581    -16.03
Cl            1.414e+00
   Cl-             1.414e+00   8.154e-01     0.150    -0.089    -0.239     19.23
K             2.393e-02
   K+              2.393e-02   1.486e-02    -1.621    -1.828    -0.207     10.24
Mg            1.354e-01
   Mg+2            1.354e-01   4.210e-02    -0.868    -1.376    -0.507    -19.72
   MgCO3           1.611e-05   1.611e-05    -4.793    -4.793     0.000    -17.09
   MgOH+           2.953e-06   2.859e-06    -5.530    -5.544    -0.014     (0)  
Na            1.227e+00
   Na+             1.227e+00   9.140e-01     0.089    -0.039    -0.128      0.06
S(6)          7.367e-02
   SO4-2           7.367e-02   2.673e-03    -1.133    -2.573    -1.440     20.94
   HSO4-           9.655e-09   5.538e-09    -8.015    -8.257    -0.241     41.36

------------------------------Saturation indices-------------------------------

  Phase               SI** log IAP   log K(298 K,   1 atm)

  Anhydrite        -0.48     -4.73   -4.25  CaSO4
  Aragonite        -0.28     -8.50   -8.22  CaCO3
  Arcanite         -4.35     -6.23   -1.88  K2SO4
  Artinite         -3.20     16.46   19.66  Mg2CO3(OH)2:3H2O
  Bischofite       -6.28     -1.68    4.59  MgCl2:6H2O
  Bloedite         -4.34     -6.69   -2.35  Na2Mg(SO4)2:4H2O
  Brucite          -3.20    -14.08  -10.88  Mg(OH)2
  Burkeite        -10.95    -11.73   -0.77  Na6CO3(SO4)2
  Calcite           0.00     -8.50   -8.50  CaCO3
  Carnallite       -8.02     -3.60    4.42  KMgCl3:6H2O
  CO2(g)           -3.50     -4.97   -1.47  CO2	 Pressure   0.0 atm, phi 1.000
  Dolomite          0.86    -16.22  -17.08  CaMg(CO3)2
  Epsomite         -2.25     -4.10   -1.85  MgSO4:7H2O
  Gaylussite       -5.61    -15.03   -9.42  CaNa2(CO3)2:5H2O
  Glaserite        -6.87    -10.67   -3.80  NaK3(SO4)2
  Glauberite       -2.03     -7.38   -5.35  Na2Ca(SO4)2
  Goergeyite       -0.53    -29.90  -29.37  K2Ca5(SO4)6H2O
  Gypsum           -0.17     -4.77   -4.60  CaSO4:2H2O
  H2O(g)           -1.52     -0.02    1.50  H2O
  Halite           -1.71     -0.13    1.58  NaCl
  Hexahydrite      -2.51     -4.08   -1.57  MgSO4:6H2O
  Huntite          -0.55      9.69   10.24  CaMg3(CO3)4
  Kainite          -5.74     -5.93   -0.19  KMgClSO4:3H2O
  Kalicinite       -5.90    -15.84   -9.94  KHCO3
  Kieserite        -3.70     -3.97   -0.27  MgSO4:H2O
  Labile_S         -4.40    -10.07   -5.67  Na4Ca(SO4)3:2H2O
  Leonhardite      -3.15     -4.04   -0.89  MgSO4:4H2O
  Leonite          -6.28    -10.26   -3.98  K2Mg(SO4)2:4H2O
  Magnesite         0.11     -7.72   -7.83  MgCO3
  MgCl2_2H2O      -16.15     -1.60   14.56  MgCl2:2H2O
  MgCl2_4H2O       -8.62     -1.64    6.98  MgCl2:4H2O
  Mirabilite       -1.63     -2.87   -1.24  Na2SO4:10H2O
  Misenite        -67.80    -78.61  -10.81  K8H6(SO4)7
  Nahcolite        -3.30    -14.05  -10.74  NaHCO3
  Natron           -5.81     -6.64   -0.82  Na2CO3:10H2O
  Nesquehonite     -2.62     -7.79   -5.17  MgCO3:3H2O
  Pentahydrite     -2.77     -4.06   -1.28  MgSO4:5H2O
  Pirssonite       -5.73    -14.97   -9.23  Na2Ca(CO3)2:2H2O
  Polyhalite       -5.94    -19.68  -13.74  K2MgCa2(SO4)4:2H2O
  Portlandite      -9.67    -14.86   -5.19  Ca(OH)2
  Schoenite        -5.98    -10.31   -4.33  K2Mg(SO4)2:6H2O
  Sylvite          -2.82     -1.92    0.90  KCl
  Syngenite        -4.55    -10.98   -6.43  K2Ca(SO4)2:H2O
  Thenardite       -2.35     -2.65   -0.30  Na2SO4
  Trona            -9.13    -20.51  -11.38  Na3H(CO3)2:2H2O

**For a gas, SI = log10(fugacity). Fugacity = pressure * phi / 1 atm.
  For ideal gases, phi = 1.

Reaction step 5.

Using solution 1.	Black Sea water
Using pure phase assemblage 1.	
Using reaction 1.	

Reaction 1.	

	  4.000e+00 moles of the following reaction have been added:

	                 Relative
	Reactant            moles

	H2O                 -1.00000

	                 Relative
	Element             moles
	H                   -2.00000
	O                   -1.00000

-------------------------------Phase assemblage--------------------------------

                                                      Moles in assemblage
Phase               SI  log IAP  log K(T, P)   Initial       Final       Delta

Anhydrite        -0.28    -4.53     -4.25    0.000e+00           0   0.000e+00
Bischofite       -5.64    -1.05      4.59    0.000e+00           0   0.000e+00
CO2(g)           -3.50    -4.97     -1.47    1.000e+01   1.000e+01   2.132e-05
Calcite           0.00    -8.50     -8.50    3.262e-04   3.484e-04   2.220e-05
Carnallite       -7.02    -2.60      4.42    0.000e+00           0   0.000e+00
Epsomite         -2.04    -3.89     -1.85    0.000e+00           0   0.000e+00
Glauberite       -1.42    -6.77     -5.35    0.000e+00           0   0.000e+00
Gypsum            0.00    -4.60     -4.60    0.000e+00   8.380e-04   8.380e-04
Halite           -1.30     0.28      1.58    0.000e+00           0   0.000e+00
Hexahydrite      -2.29    -3.85     -1.57    0.000e+00           0   0.000e+00
Kieserite        -3.41    -3.68     -0.27    0.000e+00           0   0.000e+00
Polyhalite       -4.92   -18.67    -13.74    0.000e+00           0   0.000e+00

-----------------------------Solution composition------------------------------

	Elements           Molality       Moles

	Br                3.255e-03   4.401e-04
	C                 4.341e-04   5.869e-05
	Ca                3.443e-02   4.655e-03
	Cl                2.167e+00   2.930e-01
	K                 3.668e-02   4.960e-03
	Mg                2.076e-01   2.807e-02
	Na                1.881e+00   2.544e-01
	S                 1.067e-01   1.443e-02

----------------------------Description of solution----------------------------

                                       pH  =   7.547      Charge balance
                                       pe  =   4.000      Adjusted to redox equilibrium
      Specific Conductance (µS/cm,  25°C)  = 148781
                          Density (g/cm³)  =   1.09019
                               Volume (L)  =   0.14120
                        Activity of water  =   0.923
                 Ionic strength (mol/kgw)  =   2.742e+00
                       Mass of water (kg)  =   1.352e-01
                 Total alkalinity (eq/kg)  =   4.684e-04
                       Total CO2 (mol/kg)  =   4.341e-04
                         Temperature (°C)  =  25.00
                  Electrical balance (eq)  =   2.359e-03
 Percent error, 100*(Cat-|An|)/(Cat+|An|)  =   0.36
                               Iterations  =  11
                         Gamma iterations  =   4
                      Osmotic coefficient  =   1.00553
                         Density of water  =   0.99704
                                  Total H  = 1.500978e+01
                                  Total O  = 7.562772e+00

----------------------------Distribution of species----------------------------

                                                    MacInnes  MacInnes
                                MacInnes       Log       Log       Log    mole V
   Species          Molality    Activity  Molality  Activity     Gamma   cm³/mol

   OH-             9.606e-07   3.290e-07    -6.017    -6.483    -0.465      0.41
   H+              1.960e-08   2.839e-08    -7.708    -7.547     0.161      0.00
   H2O             5.551e+01   9.228e-01     1.744    -0.035     0.000     18.07
Br            3.255e-03
   Br-             3.255e-03   2.105e-03    -2.487    -2.677    -0.189     25.84
C(4)          4.341e-04
   HCO3-           3.915e-04   1.593e-04    -3.407    -3.798    -0.390     30.81
   MgCO3           2.054e-05   2.054e-05    -4.687    -4.687     0.000    -17.09
   CO3-2           1.483e-05   2.570e-07    -4.829    -6.590    -1.761      3.92
   CO2             7.188e-06   1.076e-05    -5.143    -4.968     0.175     34.43
Ca            3.443e-02
   Ca+2            3.443e-02   1.226e-02    -1.463    -1.911    -0.448    -15.60
Cl            2.167e+00
   Cl-             2.167e+00   1.234e+00     0.336     0.091    -0.245     19.49
K             3.668e-02
   K+              3.668e-02   2.314e-02    -1.436    -1.636    -0.200     10.68
Mg            2.076e-01
   Mg+2            2.076e-01   9.429e-02    -0.683    -1.026    -0.343    -19.25
   MgCO3           2.054e-05   2.054e-05    -4.687    -4.687     0.000    -17.09
   MgOH+           5.220e-06   4.758e-06    -5.282    -5.323    -0.040     (0)  
Na            1.881e+00
   Na+             1.881e+00   1.553e+00     0.274     0.191    -0.083      0.40
S(6)          1.067e-01
   SO4-2           1.067e-01   2.403e-03    -0.972    -2.619    -1.648     22.47
   HSO4-           1.199e-08   6.498e-09    -7.921    -8.187    -0.266     41.57

------------------------------Saturation indices-------------------------------

  Phase               SI** log IAP   log K(298 K,   1 atm)

  Anhydrite        -0.28     -4.53   -4.25  CaSO4
  Aragonite        -0.28     -8.50   -8.22  CaCO3
  Arcanite         -4.01     -5.89   -1.88  K2SO4
  Artinite         -3.04     16.62   19.66  Mg2CO3(OH)2:3H2O
  Bischofite       -5.64     -1.05    4.59  MgCl2:6H2O
  Bloedite         -3.67     -6.02   -2.35  Na2Mg(SO4)2:4H2O
  Brucite          -3.11    -13.99  -10.88  Mg(OH)2
  Burkeite         -9.91    -10.68   -0.77  Na6CO3(SO4)2
  Calcite           0.00     -8.50   -8.50  CaCO3
  Carnallite       -7.02     -2.60    4.42  KMgCl3:6H2O
  CO2(g)           -3.50     -4.97   -1.47  CO2	 Pressure   0.0 atm, phi 1.000
  Dolomite          0.97    -16.12  -17.08  CaMg(CO3)2
  Epsomite         -2.04     -3.89   -1.85  MgSO4:7H2O
  Gaylussite       -5.46    -14.88   -9.42  CaNa2(CO3)2:5H2O
  Glaserite        -6.15     -9.95   -3.80  NaK3(SO4)2
  Glauberite       -1.42     -6.77   -5.35  Na2Ca(SO4)2
  Goergeyite        0.79    -28.58  -29.37  K2Ca5(SO4)6H2O
  Gypsum            0.00     -4.60   -4.60  CaSO4:2H2O
  H2O(g)           -1.54     -0.03    1.50  H2O
  Halite           -1.30      0.28    1.58  NaCl
  Hexahydrite      -2.29     -3.85   -1.57  MgSO4:6H2O
  Huntite          -0.23     10.01   10.24  CaMg3(CO3)4
  Kainite          -5.10     -5.29   -0.19  KMgClSO4:3H2O
  Kalicinite       -5.83    -15.77   -9.94  KHCO3
  Kieserite        -3.41     -3.68   -0.27  MgSO4:H2O
  Labile_S         -3.40     -9.07   -5.67  Na4Ca(SO4)3:2H2O
  Leonhardite      -2.90     -3.78   -0.89  MgSO4:4H2O
  Leonite          -5.70     -9.68   -3.98  K2Mg(SO4)2:4H2O
  Magnesite         0.22     -7.62   -7.83  MgCO3
  MgCl2_2H2O      -15.47     -0.91   14.56  MgCl2:2H2O
  MgCl2_4H2O       -7.96     -0.98    6.98  MgCl2:4H2O
  Mirabilite       -1.35     -2.59   -1.24  Na2SO4:10H2O
  Misenite        -65.90    -76.70  -10.81  K8H6(SO4)7
  Nahcolite        -3.20    -13.95  -10.74  NaHCO3
  Natron           -5.73     -6.56   -0.82  Na2CO3:10H2O
  Nesquehonite     -2.55     -7.72   -5.17  MgCO3:3H2O
  Pentahydrite     -2.53     -3.82   -1.28  MgSO4:5H2O
  Pirssonite       -5.54    -14.78   -9.23  Na2Ca(CO3)2:2H2O
  Polyhalite       -4.92    -18.67  -13.74  K2MgCa2(SO4)4:2H2O
  Portlandite      -9.69    -14.88   -5.19  Ca(OH)2
  Schoenite        -5.42     -9.74   -4.33  K2Mg(SO4)2:6H2O
  Sylvite          -2.45     -1.54    0.90  KCl
  Syngenite        -4.03    -10.46   -6.43  K2Ca(SO4)2:H2O
  Thenardite       -1.94     -2.24   -0.30  Na2SO4
  Trona            -8.84    -20.22  -11.38  Na3H(CO3)2:2H2O

**For a gas, SI = log10(fugacity). Fugacity = pressure * phi / 1 atm.
  For ideal gases, phi = 1.

Reaction step 6.

Using solution 1.	Black Sea water
Using pure phase assemblage 1.	
Using reaction 1.	

Reaction 1.	

	  1.000e+00 moles of the following reaction have been added:

	                 Relative
	Reactant            moles

	H2O                 -1.00000

	                 Relative
	Element             moles
	H                   -2.00000
	O                   -1.00000

-------------------------------Phase assemblage--------------------------------

                                                      Moles in assemblage
Phase               SI  log IAP  log K(T, P)   Initial       Final       Delta

Anhydrite        -0.27    -4.52     -4.25    0.000e+00           0   0.000e+00
Bischofite       -5.41    -0.82      4.59    0.000e+00           0   0.000e+00
CO2(g)           -3.50    -4.97     -1.47    1.000e+01   1.000e+01   3.819e-06
Calcite           0.00    -8.50     -8.50    3.484e-04   3.518e-04   3.409e-06
Carnallite       -6.65    -2.23      4.42    0.000e+00           0   0.000e+00
Epsomite         -1.97    -3.82     -1.85    0.000e+00           0   0.000e+00
Glauberite       -1.27    -6.62     -5.35    0.000e+00           0   0.000e+00
Gypsum            0.00    -4.60     -4.60    8.380e-04   1.653e-03   8.149e-04
Halite           -1.15     0.43      1.58    0.000e+00           0   0.000e+00
Hexahydrite      -2.21    -3.78     -1.57    0.000e+00           0   0.000e+00
Kieserite        -3.31    -3.58     -0.27    0.000e+00           0   0.000e+00
Polyhalite       -4.70   -18.44    -13.74    0.000e+00           0   0.000e+00

-----------------------------Solution composition------------------------------

	Elements           Molality       Moles

	Br                3.757e-03   4.401e-04
	C                 4.392e-04   5.146e-05
	Ca                3.275e-02   3.836e-03
	Cl                2.501e+00   2.930e-01
	K                 4.233e-02   4.960e-03
	Mg                2.396e-01   2.807e-02
	Na                2.171e+00   2.544e-01
	S                 1.162e-01   1.362e-02

----------------------------Description of solution----------------------------

                                       pH  =   7.526      Charge balance
                                       pe  =   4.000      Adjusted to redox equilibrium
      Specific Conductance (µS/cm,  25°C)  = 174599
                          Density (g/cm³)  =   1.10238
                               Volume (L)  =   0.12317
                        Activity of water  =   0.909
                 Ionic strength (mol/kgw)  =   3.136e+00
                       Mass of water (kg)  =   1.172e-01
                 Total alkalinity (eq/kg)  =   4.824e-04
                       Total CO2 (mol/kg)  =   4.392e-04
                         Temperature (°C)  =  25.00
                  Electrical balance (eq)  =   2.359e-03
 Percent error, 100*(Cat-|An|)/(Cat+|An|)  =   0.37
                               Iterations  =   8
                         Gamma iterations  =   3
                      Osmotic coefficient  =   1.03331
                         Density of water  =   0.99704
                                  Total H  = 1.300652e+01
                                  Total O  = 6.557864e+00

----------------------------Distribution of species----------------------------

                                                    MacInnes  MacInnes
                                MacInnes       Log       Log       Log    mole V
   Species          Molality    Activity  Molality  Activity     Gamma   cm³/mol

   OH-             9.486e-07   3.087e-07    -6.023    -6.510    -0.488      0.95
   H+              1.785e-08   2.982e-08    -7.748    -7.526     0.223      0.00
   H2O             5.551e+01   9.093e-01     1.744    -0.041     0.000     18.07
Br            3.757e-03
   Br-             3.757e-03   2.478e-03    -2.425    -2.606    -0.181     25.90
C(4)          4.392e-04
   HCO3-           3.905e-04   1.495e-04    -3.408    -3.825    -0.417     31.57
   MgCO3           2.576e-05   2.576e-05    -4.589    -4.589     0.000    -17.09
   CO3-2           1.617e-05   2.296e-07    -4.791    -6.639    -1.848      4.58
   CO2             6.781e-06   1.076e-05    -5.169    -4.968     0.201     34.43
Ca            3.275e-02
   Ca+2            3.275e-02   1.373e-02    -1.485    -1.862    -0.378    -15.43
Cl            2.501e+00
   Cl-             2.501e+00   1.427e+00     0.398     0.154    -0.244     19.58
K             4.233e-02
   K+              4.233e-02   2.714e-02    -1.373    -1.566    -0.193     10.86
Mg            2.396e-01
   Mg+2            2.396e-01   1.324e-01    -0.621    -0.878    -0.258    -19.06
   MgCO3           2.576e-05   2.576e-05    -4.589    -4.589     0.000    -17.09
   MgOH+           7.060e-06   6.268e-06    -5.151    -5.203    -0.052     (0)  
Na            2.171e+00
   Na+             2.171e+00   1.894e+00     0.337     0.277    -0.059      0.52
S(6)          1.162e-01
   SO4-2           1.162e-01   2.210e-03    -0.935    -2.656    -1.721     23.03
   HSO4-           1.183e-08   6.278e-09    -7.927    -8.202    -0.275     41.65

------------------------------Saturation indices-------------------------------

  Phase               SI** log IAP   log K(298 K,   1 atm)

  Anhydrite        -0.27     -4.52   -4.25  CaSO4
  Aragonite        -0.28     -8.50   -8.22  CaCO3
  Arcanite         -3.91     -5.79   -1.88  K2SO4
  Artinite         -2.87     16.79   19.66  Mg2CO3(OH)2:3H2O
  Bischofite       -5.41     -0.82    4.59  MgCl2:6H2O
  Bloedite         -3.45     -5.80   -2.35  Na2Mg(SO4)2:4H2O
  Brucite          -3.02    -13.90  -10.88  Mg(OH)2
  Burkeite         -9.51    -10.29   -0.77  Na6CO3(SO4)2
  Calcite           0.00     -8.50   -8.50  CaCO3
  Carnallite       -6.65     -2.23    4.42  KMgCl3:6H2O
  CO2(g)           -3.50     -4.97   -1.47  CO2	 Pressure   0.0 atm, phi 1.000
  Dolomite          1.06    -16.02  -17.08  CaMg(CO3)2
  Epsomite         -1.97     -3.82   -1.85  MgSO4:7H2O
  Gaylussite       -5.37    -14.79   -9.42  CaNa2(CO3)2:5H2O
  Glaserite        -5.93     -9.73   -3.80  NaK3(SO4)2
  Glauberite       -1.27     -6.62   -5.35  Na2Ca(SO4)2
  Goergeyite        0.95    -28.42  -29.37  K2Ca5(SO4)6H2O
  Gypsum            0.00     -4.60   -4.60  CaSO4:2H2O
  H2O(g)           -1.54     -0.04    1.50  H2O
  Halite           -1.15      0.43    1.58  NaCl
  Hexahydrite      -2.21     -3.78   -1.57  MgSO4:6H2O
  Huntite           0.06     10.30   10.24  CaMg3(CO3)4
  Kainite          -4.88     -5.07   -0.19  KMgClSO4:3H2O
  Kalicinite       -5.79    -15.73   -9.94  KHCO3
  Kieserite        -3.31     -3.58   -0.27  MgSO4:H2O
  Labile_S         -3.13     -8.80   -5.67  Na4Ca(SO4)3:2H2O
  Leonhardite      -2.81     -3.70   -0.89  MgSO4:4H2O
  Leonite          -5.51     -9.49   -3.98  K2Mg(SO4)2:4H2O
  Magnesite         0.32     -7.52   -7.83  MgCO3
  MgCl2_2H2O      -15.21     -0.65   14.56  MgCl2:2H2O
  MgCl2_4H2O       -7.71     -0.73    6.98  MgCl2:4H2O
  Mirabilite       -1.27     -2.51   -1.24  Na2SO4:10H2O
  Misenite        -65.47    -76.27  -10.81  K8H6(SO4)7
  Nahcolite        -3.15    -13.89  -10.74  NaHCO3
  Natron           -5.67     -6.50   -0.82  Na2CO3:10H2O
  Nesquehonite     -2.47     -7.64   -5.17  MgCO3:3H2O
  Pentahydrite     -2.46     -3.74   -1.28  MgSO4:5H2O
  Pirssonite       -5.43    -14.67   -9.23  Na2Ca(CO3)2:2H2O
  Polyhalite       -4.70    -18.44  -13.74  K2MgCa2(SO4)4:2H2O
  Portlandite      -9.69    -14.88   -5.19  Ca(OH)2
  Schoenite        -5.24     -9.57   -4.33  K2Mg(SO4)2:6H2O
  Sylvite          -2.31     -1.41    0.90  KCl
  Syngenite        -3.92    -10.35   -6.43  K2Ca(SO4)2:H2O
  Thenardite       -1.80     -2.10   -0.30  Na2SO4
  Trona            -8.67    -20.05  -11.38  Na3H(CO3)2:2H2O

**For a gas, SI = log10(fugacity). Fugacity = pressure * phi / 1 atm.
  For ideal gases, phi = 1.

Reaction step 7.

Using solution 1.	Black Sea water
Using pure phase assemblage 1.	
Using reaction 1.	

Reaction 1.	

	  1.000e+00 moles of the following reaction have been added:

	                 Relative
	Reactant            moles

	H2O                 -1.00000

	                 Relative
	Element             moles
	H                   -2.00000
	O                   -1.00000

-------------------------------Phase assemblage--------------------------------

                                                      Moles in assemblage
Phase               SI  log IAP  log K(T, P)   Initial       Final       Delta

Anhydrite        -0.25    -4.50     -4.25    0.000e+00           0   0.000e+00
Bischofite       -5.12    -0.52      4.59    0.000e+00           0   0.000e+00
CO2(g)           -3.50    -4.97     -1.47    1.000e+01   1.000e+01   3.889e-06
Calcite           0.00    -8.50     -8.50    3.518e-04   3.550e-04   3.195e-06
Carnallite       -6.20    -1.78      4.42    0.000e+00           0   0.000e+00
Epsomite         -1.89    -3.74     -1.85    0.000e+00           0   0.000e+00
Glauberite       -1.08    -6.43     -5.35    0.000e+00           0   0.000e+00
Gypsum           -0.00    -4.60     -4.60    1.653e-03   2.515e-03   8.620e-04
Halite           -0.97     0.62      1.58    0.000e+00           0   0.000e+00
Hexahydrite      -2.12    -3.69     -1.57    0.000e+00           0   0.000e+00
Kieserite        -3.17    -3.43     -0.27    0.000e+00           0   0.000e+00
Polyhalite       -4.40   -18.15    -13.74    0.000e+00           0   0.000e+00

-----------------------------Solution composition------------------------------

	Elements           Molality       Moles

	Br                4.440e-03   4.401e-04
	C                 4.478e-04   4.438e-05
	Ca                2.998e-02   2.971e-03
	Cl                2.957e+00   2.930e-01
	K                 5.004e-02   4.960e-03
	Mg                2.832e-01   2.807e-02
	Na                2.566e+00   2.544e-01
	S                 1.287e-01   1.276e-02

----------------------------Description of solution----------------------------

                                       pH  =   7.498      Charge balance
                                       pe  =   4.000      Adjusted to redox equilibrium
      Specific Conductance (µS/cm,  25°C)  = 219625
                          Density (g/cm³)  =   1.11851
                               Volume (L)  =   0.10515
                        Activity of water  =   0.890
                 Ionic strength (mol/kgw)  =   3.673e+00
                       Mass of water (kg)  =   9.912e-02
                 Total alkalinity (eq/kg)  =   5.057e-04
                       Total CO2 (mol/kg)  =   4.478e-04
                         Temperature (°C)  =  25.00
                  Electrical balance (eq)  =   2.359e-03
 Percent error, 100*(Cat-|An|)/(Cat+|An|)  =   0.37
                               Iterations  =   8
                         Gamma iterations  =   3
                      Osmotic coefficient  =   1.07288
                         Density of water  =   0.99704
                                  Total H  = 1.100307e+01
                                  Total O  = 5.552675e+00

----------------------------Distribution of species----------------------------

                                                    MacInnes  MacInnes
                                MacInnes       Log       Log       Log    mole V
   Species          Molality    Activity  Molality  Activity     Gamma   cm³/mol

   OH-             9.297e-07   2.836e-07    -6.032    -6.547    -0.516      1.67
   H+              1.558e-08   3.177e-08    -7.808    -7.498     0.310      0.00
   H2O             5.551e+01   8.902e-01     1.744    -0.051     0.000     18.07
Br            4.440e-03
   Br-             4.440e-03   3.024e-03    -2.353    -2.519    -0.167     25.97
C(4)          4.478e-04
   HCO3-           3.888e-04   1.373e-04    -3.410    -3.862    -0.452     32.59
   MgCO3           3.493e-05   3.493e-05    -4.457    -4.457     0.000    -17.09
   CO3-2           1.781e-05   1.979e-07    -4.749    -6.704    -1.954      5.43
   CO2             6.266e-06   1.076e-05    -5.203    -4.968     0.235     34.43
Ca            2.998e-02
   Ca+2            2.998e-02   1.593e-02    -1.523    -1.798    -0.275    -15.20
Cl            2.957e+00
   Cl-             2.957e+00   1.698e+00     0.471     0.230    -0.241     19.69
K             5.004e-02
   K+              5.004e-02   3.298e-02    -1.301    -1.482    -0.181     11.10
Mg            2.832e-01
   Mg+2            2.832e-01   2.083e-01    -0.548    -0.681    -0.133    -18.81
   MgCO3           3.493e-05   3.493e-05    -4.457    -4.457     0.000    -17.09
   MgOH+           1.061e-05   9.058e-06    -4.974    -5.043    -0.069     (0)  
Na            2.566e+00
   Na+             2.566e+00   2.428e+00     0.409     0.385    -0.024      0.68
S(6)          1.287e-01
   SO4-2           1.287e-01   1.988e-03    -0.890    -2.702    -1.811     23.74
   HSO4-           1.165e-08   6.018e-09    -7.934    -8.221    -0.287     41.74

------------------------------Saturation indices-------------------------------

  Phase               SI** log IAP   log K(298 K,   1 atm)

  Anhydrite        -0.25     -4.50   -4.25  CaSO4
  Aragonite        -0.28     -8.50   -8.22  CaCO3
  Arcanite         -3.79     -5.67   -1.88  K2SO4
  Artinite         -2.64     17.02   19.66  Mg2CO3(OH)2:3H2O
  Bischofite       -5.12     -0.52    4.59  MgCl2:6H2O
  Bloedite         -3.17     -5.52   -2.35  Na2Mg(SO4)2:4H2O
  Brucite          -2.90    -13.78  -10.88  Mg(OH)2
  Burkeite         -9.02     -9.80   -0.77  Na6CO3(SO4)2
  Calcite           0.00     -8.50   -8.50  CaCO3
  Carnallite       -6.20     -1.78    4.42  KMgCl3:6H2O
  CO2(g)           -3.50     -4.97   -1.47  CO2	 Pressure   0.0 atm, phi 1.000
  Dolomite          1.20    -15.89  -17.08  CaMg(CO3)2
  Epsomite         -1.89     -3.74   -1.85  MgSO4:7H2O
  Gaylussite       -5.27    -14.69   -9.42  CaNa2(CO3)2:5H2O
  Glaserite        -5.66     -9.46   -3.80  NaK3(SO4)2
  Glauberite       -1.08     -6.43   -5.35  Na2Ca(SO4)2
  Goergeyite        1.16    -28.21  -29.37  K2Ca5(SO4)6H2O
  Gypsum           -0.00     -4.60   -4.60  CaSO4:2H2O
  H2O(g)           -1.55     -0.05    1.50  H2O
  Halite           -0.97      0.62    1.58  NaCl
  Hexahydrite      -2.12     -3.69   -1.57  MgSO4:6H2O
  Huntite           0.46     10.70   10.24  CaMg3(CO3)4
  Kainite          -4.59     -4.79   -0.19  KMgClSO4:3H2O
  Kalicinite       -5.74    -15.68   -9.94  KHCO3
  Kieserite        -3.17     -3.43   -0.27  MgSO4:H2O
  Labile_S         -2.79     -8.46   -5.67  Na4Ca(SO4)3:2H2O
  Leonhardite      -2.70     -3.59   -0.89  MgSO4:4H2O
  Leonite          -5.27     -9.25   -3.98  K2Mg(SO4)2:4H2O
  Magnesite         0.45     -7.38   -7.83  MgCO3
  MgCl2_2H2O      -14.88     -0.32   14.56  MgCl2:2H2O
  MgCl2_4H2O       -7.40     -0.42    6.98  MgCl2:4H2O
  Mirabilite       -1.20     -2.44   -1.24  Na2SO4:10H2O
  Misenite        -64.95    -75.75  -10.81  K8H6(SO4)7
  Nahcolite        -3.07    -13.82  -10.74  NaHCO3
  Natron           -5.61     -6.44   -0.82  Na2CO3:10H2O
  Nesquehonite     -2.37     -7.54   -5.17  MgCO3:3H2O
  Pentahydrite     -2.35     -3.64   -1.28  MgSO4:5H2O
  Pirssonite       -5.30    -14.54   -9.23  Na2Ca(CO3)2:2H2O
  Polyhalite       -4.40    -18.15  -13.74  K2MgCa2(SO4)4:2H2O
  Portlandite      -9.70    -14.89   -5.19  Ca(OH)2
  Schoenite        -5.02     -9.35   -4.33  K2Mg(SO4)2:6H2O
  Sylvite          -2.15     -1.25    0.90  KCl
  Syngenite        -3.79    -10.22   -6.43  K2Ca(SO4)2:H2O
  Thenardite       -1.63     -1.93   -0.30  Na2SO4
  Trona            -8.47    -19.85  -11.38  Na3H(CO3)2:2H2O

**For a gas, SI = log10(fugacity). Fugacity = pressure * phi / 1 atm.
  For ideal gases, phi = 1.

Reaction step 8.

Using solution 1.	Black Sea water
Using pure phase assemblage 1.	
Using reaction 1.	

Reaction 1.	

	  1.000e+00 moles of the following reaction have been added:

	                 Relative
	Reactant            moles

	H2O                 -1.00000

	                 Relative
	Element             moles
	H                   -2.00000
	O                   -1.00000

-------------------------------Phase assemblage--------------------------------

                                                      Moles in assemblage
Phase               SI  log IAP  log K(T, P)   Initial       Final       Delta

Anhydrite        -0.22    -4.47     -4.25    0.000e+00           0   0.000e+00
Bischofite       -4.74    -0.14      4.59    0.000e+00           0   0.000e+00
CO2(g)           -3.50    -4.97     -1.47    1.000e+01   1.000e+01   4.009e-06
Calcite           0.00    -8.50     -8.50    3.550e-04   3.576e-04   2.597e-06
Carnallite       -5.62    -1.19      4.42    0.000e+00           0   0.000e+00
Epsomite         -1.77    -3.62     -1.85    0.000e+00           0   0.000e+00
Glauberite       -0.83    -6.18     -5.35    0.000e+00           0   0.000e+00
Gypsum            0.00    -4.60     -4.60    2.515e-03   3.410e-03   8.953e-04
Halite           -0.73     0.85      1.58    0.000e+00           0   0.000e+00
Hexahydrite      -1.99    -3.55     -1.57    0.000e+00           0   0.000e+00
Kieserite        -2.96    -3.23     -0.27    0.000e+00           0   0.000e+00
Polyhalite       -4.00   -17.74    -13.74    0.000e+00           0   0.000e+00

-----------------------------Solution composition------------------------------

	Elements           Molality       Moles

	Br                5.429e-03   4.401e-04
	C                 4.660e-04   3.777e-05
	Ca                2.558e-02   2.073e-03
	Cl                3.615e+00   2.930e-01
	K                 6.118e-02   4.960e-03
	Mg                3.463e-01   2.807e-02
	Na                3.138e+00   2.544e-01
	S                 1.463e-01   1.186e-02

----------------------------Description of solution----------------------------

                                       pH  =   7.460      Charge balance
                                       pe  =   4.000      Adjusted to redox equilibrium
      Specific Conductance (µS/cm,  25°C)  = 286771
                          Density (g/cm³)  =   1.14090
                               Volume (L)  =   0.08716
                        Activity of water  =   0.861
                 Ionic strength (mol/kgw)  =   4.446e+00
                       Mass of water (kg)  =   8.107e-02
                 Total alkalinity (eq/kg)  =   5.543e-04
                       Total CO2 (mol/kg)  =   4.660e-04
                         Temperature (°C)  =  25.00
                  Electrical balance (eq)  =   2.359e-03
 Percent error, 100*(Cat-|An|)/(Cat+|An|)  =   0.37
                               Iterations  =   9
                         Gamma iterations  =   4
                      Osmotic coefficient  =   1.13296
                         Density of water  =   0.99704
                                  Total H  = 8.999493e+00
                                  Total O  = 4.547287e+00

----------------------------Distribution of species----------------------------

                                                    MacInnes  MacInnes
                                MacInnes       Log       Log       Log    mole V
   Species          Molality    Activity  Molality  Activity     Gamma   cm³/mol

   OH-             9.003e-07   2.516e-07    -6.046    -6.599    -0.554      2.70
   H+              1.261e-08   3.463e-08    -7.899    -7.460     0.439      0.00
   H2O             5.551e+01   8.609e-01     1.744    -0.065     0.000     18.07
Br            5.429e-03
   Br-             5.429e-03   3.898e-03    -2.265    -2.409    -0.144     26.05
C(4)          4.660e-04
   HCO3-           3.864e-04   1.218e-04    -3.413    -3.914    -0.501     34.06
   MgCO3           5.416e-05   5.416e-05    -4.266    -4.266     0.000    -17.09
   CO3-2           1.983e-05   1.611e-07    -4.703    -6.793    -2.090      6.59
   CO2             5.592e-06   1.076e-05    -5.252    -4.968     0.284     34.43
Ca            2.558e-02
   Ca+2            2.558e-02   1.957e-02    -1.592    -1.708    -0.116    -14.89
Cl            3.615e+00
   Cl-             3.615e+00   2.110e+00     0.558     0.324    -0.234     19.84
K             6.118e-02
   K+              6.118e-02   4.233e-02    -1.213    -1.373    -0.160     11.44
Mg            3.463e-01
   Mg+2            3.462e-01   3.968e-01    -0.461    -0.401     0.059    -18.46
   MgCO3           5.416e-05   5.416e-05    -4.266    -4.266     0.000    -17.09
   MgOH+           1.903e-05   1.531e-05    -4.721    -4.815    -0.094     (0)  
Na            3.138e+00
   Na+             3.138e+00   3.377e+00     0.497     0.529     0.032      0.88
S(6)          1.463e-01
   SO4-2           1.463e-01   1.730e-03    -0.835    -2.762    -1.927     24.68
   HSO4-           1.148e-08   5.708e-09    -7.940    -8.243    -0.303     41.85

------------------------------Saturation indices-------------------------------

  Phase               SI** log IAP   log K(298 K,   1 atm)

  Anhydrite        -0.22     -4.47   -4.25  CaSO4
  Aragonite        -0.28     -8.50   -8.22  CaCO3
  Arcanite         -3.63     -5.51   -1.88  K2SO4
  Artinite         -2.32     17.34   19.66  Mg2CO3(OH)2:3H2O
  Bischofite       -4.74     -0.14    4.59  MgCl2:6H2O
  Bloedite         -2.78     -5.13   -2.35  Na2Mg(SO4)2:4H2O
  Brucite          -2.72    -13.60  -10.88  Mg(OH)2
  Burkeite         -8.37     -9.15   -0.77  Na6CO3(SO4)2
  Calcite           0.00     -8.50   -8.50  CaCO3
  Carnallite       -5.62     -1.19    4.42  KMgCl3:6H2O
  CO2(g)           -3.50     -4.97   -1.47  CO2	 Pressure   0.0 atm, phi 1.000
  Dolomite          1.39    -15.70  -17.08  CaMg(CO3)2
  Epsomite         -1.77     -3.62   -1.85  MgSO4:7H2O
  Gaylussite       -5.14    -14.56   -9.42  CaNa2(CO3)2:5H2O
  Glaserite        -5.31     -9.12   -3.80  NaK3(SO4)2
  Glauberite       -0.83     -6.18   -5.35  Na2Ca(SO4)2
  Goergeyite        1.44    -27.93  -29.37  K2Ca5(SO4)6H2O
  Gypsum            0.00     -4.60   -4.60  CaSO4:2H2O
  H2O(g)           -1.57     -0.07    1.50  H2O
  Halite           -0.73      0.85    1.58  NaCl
  Hexahydrite      -1.99     -3.55   -1.57  MgSO4:6H2O
  Huntite           1.03     11.27   10.24  CaMg3(CO3)4
  Kainite          -4.21     -4.41   -0.19  KMgClSO4:3H2O
  Kalicinite       -5.69    -15.63   -9.94  KHCO3
  Kieserite        -2.96     -3.23   -0.27  MgSO4:H2O
  Labile_S         -2.34     -8.01   -5.67  Na4Ca(SO4)3:2H2O
  Leonhardite      -2.54     -3.42   -0.89  MgSO4:4H2O
  Leonite          -4.95     -8.93   -3.98  K2Mg(SO4)2:4H2O
  Magnesite         0.64     -7.19   -7.83  MgCO3
  MgCl2_2H2O      -14.44      0.12   14.56  MgCl2:2H2O
  MgCl2_4H2O       -6.99     -0.01    6.98  MgCl2:4H2O
  Mirabilite       -1.12     -2.36   -1.24  Na2SO4:10H2O
  Misenite        -64.28    -75.08  -10.81  K8H6(SO4)7
  Nahcolite        -2.98    -13.72  -10.74  NaHCO3
  Natron           -5.56     -6.39   -0.82  Na2CO3:10H2O
  Nesquehonite     -2.22     -7.39   -5.17  MgCO3:3H2O
  Pentahydrite     -2.20     -3.49   -1.28  MgSO4:5H2O
  Pirssonite       -5.13    -14.37   -9.23  Na2Ca(CO3)2:2H2O
  Polyhalite       -4.00    -17.74  -13.74  K2MgCa2(SO4)4:2H2O
  Portlandite      -9.72    -14.91   -5.19  Ca(OH)2
  Schoenite        -4.73     -9.06   -4.33  K2Mg(SO4)2:6H2O
  Sylvite          -1.95     -1.05    0.90  KCl
  Syngenite        -3.61    -10.04   -6.43  K2Ca(SO4)2:H2O
  Thenardite       -1.40     -1.70   -0.30  Na2SO4
  Trona            -8.21    -19.59  -11.38  Na3H(CO3)2:2H2O

**For a gas, SI = log10(fugacity). Fugacity = pressure * phi / 1 atm.
  For ideal gases, phi = 1.

Reaction step 9.

Using solution 1.	Black Sea water
Using pure phase assemblage 1.	
Using reaction 1.	

Reaction 1.	

	  1.000e+00 moles of the following reaction have been added:

	                 Relative
	Reactant            moles

	H2O                 -1.00000

	                 Relative
	Element             moles
	H                   -2.00000
	O                   -1.00000

-------------------------------Phase assemblage--------------------------------

                                                      Moles in assemblage
Phase               SI  log IAP  log K(T, P)   Initial       Final       Delta

Anhydrite        -0.17    -4.42     -4.25    0.000e+00           0   0.000e+00
Bischofite       -4.20     0.39      4.59    0.000e+00           0   0.000e+00
CO2(g)           -3.50    -4.97     -1.47    1.000e+01   1.000e+01   4.405e-06
Calcite           0.00    -8.50     -8.50    3.576e-04   3.582e-04   5.822e-07
Carnallite       -4.81    -0.39      4.42    0.000e+00           0   0.000e+00
Epsomite         -1.60    -3.45     -1.85    0.000e+00           0   0.000e+00
Glauberite       -0.44    -5.79     -5.35    0.000e+00           0   0.000e+00
Gypsum            0.00    -4.60     -4.60    3.410e-03   4.289e-03   8.786e-04
Halite           -0.40     1.19      1.58    0.000e+00           0   0.000e+00
Hexahydrite      -1.79    -3.35     -1.57    0.000e+00           0   0.000e+00
Kieserite        -2.63    -2.90     -0.27    0.000e+00           0   0.000e+00
Polyhalite       -3.38   -17.12    -13.74    0.000e+00           0   0.000e+00

-----------------------------Solution composition------------------------------

	Elements           Molality       Moles

	Br                6.984e-03   4.401e-04
	C                 5.203e-04   3.279e-05
	Ca                1.895e-02   1.194e-03
	Cl                4.650e+00   2.930e-01
	K                 7.870e-02   4.960e-03
	Mg                4.454e-01   2.807e-02
	Na                4.036e+00   2.544e-01
	S                 1.743e-01   1.098e-02

----------------------------Description of solution----------------------------

                                       pH  =   7.406      Charge balance
                                       pe  =   4.000      Adjusted to redox equilibrium
      Specific Conductance (µS/cm,  25°C)  = 361821
                          Density (g/cm³)  =   1.17419
                               Volume (L)  =   0.06922
                        Activity of water  =   0.811
                 Ionic strength (mol/kgw)  =   5.663e+00
                       Mass of water (kg)  =   6.302e-02
                 Total alkalinity (eq/kg)  =   6.945e-04
                       Total CO2 (mol/kg)  =   5.203e-04
                         Temperature (°C)  =  25.00
                  Electrical balance (eq)  =   2.359e-03
 Percent error, 100*(Cat-|An|)/(Cat+|An|)  =   0.37
                               Iterations  =  11
                         Gamma iterations  =   4
                      Osmotic coefficient  =   1.23315
                         Density of water  =   0.99704
                                  Total H  = 6.995978e+00
                                  Total O  = 3.542005e+00

----------------------------Distribution of species----------------------------

                                                    MacInnes  MacInnes
                                MacInnes       Log       Log       Log    mole V
   Species          Molality    Activity  Molality  Activity     Gamma   cm³/mol

   OH-             8.525e-07   2.092e-07    -6.069    -6.679    -0.610      4.28
   H+              8.812e-09   3.925e-08    -8.055    -7.406     0.649      0.00
   H2O             5.551e+01   8.113e-01     1.744    -0.091     0.000     18.07
Br            6.984e-03
   Br-             6.984e-03   5.510e-03    -2.156    -2.259    -0.103     26.15
C(4)          5.203e-04
   HCO3-           3.848e-04   1.013e-04    -3.415    -3.994    -0.580     36.32
   MgCO3           1.086e-04   1.086e-04    -3.964    -3.964     0.000    -17.09
   CO3-2           2.217e-05   1.182e-07    -4.654    -6.927    -2.273      8.30
   CO2             4.677e-06   1.076e-05    -5.330    -4.968     0.362     34.43
Ca            1.895e-02
   Ca+2            1.895e-02   2.666e-02    -1.722    -1.574     0.148    -14.41
Cl            4.650e+00
   Cl-             4.650e+00   2.815e+00     0.667     0.450    -0.218     20.04
K             7.870e-02
   K+              7.870e-02   5.966e-02    -1.104    -1.224    -0.120     11.98
Mg            4.454e-01
   Mg+2            4.453e-01   1.084e+00    -0.351     0.035     0.386    -17.92
   MgCO3           1.086e-04   1.086e-04    -3.964    -3.964     0.000    -17.09
   MgOH+           4.732e-05   3.479e-05    -4.325    -4.459    -0.134     (0)  
Na            4.036e+00
   Na+             4.036e+00   5.442e+00     0.606     0.736     0.130      1.18
S(6)          1.743e-01
   SO4-2           1.743e-01   1.429e-03    -0.759    -2.845    -2.086     25.99
   HSO4-           1.142e-08   5.345e-09    -7.942    -8.272    -0.330     42.00

------------------------------Saturation indices-------------------------------

  Phase               SI** log IAP   log K(298 K,   1 atm)

  Anhydrite        -0.17     -4.42   -4.25  CaSO4
  Aragonite        -0.28     -8.50   -8.22  CaCO3
  Arcanite         -3.41     -5.29   -1.88  K2SO4
  Artinite         -1.82     17.84   19.66  Mg2CO3(OH)2:3H2O
  Bischofite       -4.20      0.39    4.59  MgCl2:6H2O
  Bloedite         -2.20     -4.55   -2.35  Na2Mg(SO4)2:4H2O
  Brucite          -2.44    -13.32  -10.88  Mg(OH)2
  Burkeite         -7.43     -8.20   -0.77  Na6CO3(SO4)2
  Calcite           0.00     -8.50   -8.50  CaCO3
  Carnallite       -4.81     -0.39    4.42  KMgCl3:6H2O
  CO2(g)           -3.50     -4.97   -1.47  CO2	 Pressure   0.0 atm, phi 1.000
  Dolomite          1.69    -15.39  -17.08  CaMg(CO3)2
  Epsomite         -1.60     -3.45   -1.85  MgSO4:7H2O
  Gaylussite       -4.99    -14.41   -9.42  CaNa2(CO3)2:5H2O
  Glaserite        -4.82     -8.63   -3.80  NaK3(SO4)2
  Glauberite       -0.44     -5.79   -5.35  Na2Ca(SO4)2
  Goergeyite        1.89    -27.48  -29.37  K2Ca5(SO4)6H2O
  Gypsum            0.00     -4.60   -4.60  CaSO4:2H2O
  H2O(g)           -1.59     -0.09    1.50  H2O
  Halite           -0.40      1.19    1.58  NaCl
  Hexahydrite      -1.79     -3.35   -1.57  MgSO4:6H2O
  Huntite           1.94     12.18   10.24  CaMg3(CO3)4
  Kainite          -3.66     -3.86   -0.19  KMgClSO4:3H2O
  Kalicinite       -5.62    -15.56   -9.94  KHCO3
  Kieserite        -2.63     -2.90   -0.27  MgSO4:H2O
  Labile_S         -1.68     -7.35   -5.67  Na4Ca(SO4)3:2H2O
  Leonhardite      -2.29     -3.17   -0.89  MgSO4:4H2O
  Leonite          -4.49     -8.47   -3.98  K2Mg(SO4)2:4H2O
  Magnesite         0.94     -6.89   -7.83  MgCO3
  MgCl2_2H2O      -13.80      0.75   14.56  MgCl2:2H2O
  MgCl2_4H2O       -6.41      0.57    6.98  MgCl2:4H2O
  Mirabilite       -1.04     -2.28   -1.24  Na2SO4:10H2O
  Misenite        -63.34    -74.15  -10.81  K8H6(SO4)7
  Nahcolite        -2.86    -13.60  -10.74  NaHCO3
  Natron           -5.54     -6.36   -0.82  Na2CO3:10H2O
  Nesquehonite     -2.00     -7.16   -5.17  MgCO3:3H2O
  Pentahydrite     -1.98     -3.26   -1.28  MgSO4:5H2O
  Pirssonite       -4.90    -14.14   -9.23  Na2Ca(CO3)2:2H2O
  Polyhalite       -3.38    -17.12  -13.74  K2MgCa2(SO4)4:2H2O
  Portlandite      -9.74    -14.93   -5.19  Ca(OH)2
  Schoenite        -4.32     -8.65   -4.33  K2Mg(SO4)2:6H2O
  Sylvite          -1.68     -0.77    0.90  KCl
  Syngenite        -3.37     -9.80   -6.43  K2Ca(SO4)2:H2O
  Thenardite       -1.07     -1.37   -0.30  Na2SO4
  Trona            -7.85    -19.24  -11.38  Na3H(CO3)2:2H2O

**For a gas, SI = log10(fugacity). Fugacity = pressure * phi / 1 atm.
  For ideal gases, phi = 1.

Reaction step 10.

Using solution 1.	Black Sea water
Using pure phase assemblage 1.	
Using reaction 1.	

Reaction 1.	

	  1.000e+00 moles of the following reaction have been added:

	                 Relative
	Reactant            moles

	H2O                 -1.00000

	                 Relative
	Element             moles
	H                   -2.00000
	O                   -1.00000

-------------------------------Phase assemblage--------------------------------

                                                      Moles in assemblage
Phase               SI  log IAP  log K(T, P)   Initial       Final       Delta

Anhydrite        -0.09    -4.34     -4.25    0.000e+00           0   0.000e+00
Bischofite       -3.53     1.06      4.59    0.000e+00           0   0.000e+00
[...]
Br            4.542e-02
   Br-             4.542e-02   6.020e-02    -1.343    -1.220     0.122     26.34
C(4)          7.523e-03
   MgCO3           5.931e-03   5.931e-03    -2.227    -2.227     0.000    -17.09
   HCO3-           9.926e-04   6.997e-05    -3.003    -4.155    -1.152     45.86
   CO3-2           5.965e-04   6.862e-08    -3.224    -7.164    -3.939     14.73
   CO2             2.727e-06   1.076e-05    -5.564    -4.968     0.596     34.43
Ca            4.611e-03
   Ca+2            4.611e-03   4.593e-02    -2.336    -1.338     0.998    -12.42
Cl            6.294e+00
   Cl-             6.294e+00   4.725e+00     0.799     0.674    -0.125     20.69
K             2.289e-01
   K+              2.289e-01   2.914e-01    -0.640    -0.535     0.105     14.25
Mg            2.756e+00
   Mg+2            2.748e+00   1.020e+02     0.439     2.009     1.570    -15.68
   MgCO3           5.931e-03   5.931e-03    -2.227    -2.227     0.000    -17.09
   MgOH+           1.938e-03   2.260e-03    -2.713    -2.646     0.067     (0)  
Na            1.981e+00
   Na+             1.981e+00   8.076e+00     0.297     0.907     0.610      2.18
S(6)          5.659e-01
   SO4-2           5.659e-01   1.221e-03    -0.247    -2.913    -2.666     30.45
   HSO4-           5.439e-09   5.430e-09    -8.264    -8.265    -0.001     42.42

------------------------------Saturation indices-------------------------------

  Phase               SI** log IAP   log K(298 K,   1 atm)

  Anhydrite         0.00     -4.25   -4.25  CaSO4
  Aragonite        -0.28     -8.50   -8.22  CaCO3
  Arcanite         -2.10     -3.98   -1.88  K2SO4
  Artinite          1.31     20.97   19.66  Mg2CO3(OH)2:3H2O
  Bischofite       -2.29      2.30    4.59  MgCl2:6H2O
  Bloedite         -0.36     -2.71   -2.35  Na2Mg(SO4)2:4H2O
  Brucite          -0.79    -11.67  -10.88  Mg(OH)2
  Burkeite         -6.78     -7.55   -0.77  Na6CO3(SO4)2
  Calcite           0.00     -8.50   -8.50  CaCO3
  Carnallite       -1.98      2.44    4.42  KMgCl3:6H2O
  CO2(g)           -3.50     -4.97   -1.47  CO2	 Pressure   0.0 atm, phi 1.000
  Dolomite          3.43    -13.66  -17.08  CaMg(CO3)2
  Epsomite         -0.29     -2.14   -1.85  MgSO4:7H2O
  Gaylussite       -5.31    -14.73   -9.42  CaNa2(CO3)2:5H2O
  Glaserite        -2.72     -6.53   -3.80  NaK3(SO4)2
  Glauberite        0.00     -5.35   -5.35  Na2Ca(SO4)2
  Goergeyite        3.95    -25.42  -29.37  K2Ca5(SO4)6H2O
  Gypsum           -0.00     -4.60   -4.60  CaSO4:2H2O
  H2O(g)           -1.68     -0.18    1.50  H2O
  Halite            0.00      1.58    1.58  NaCl
  Hexahydrite      -0.39     -1.96   -1.57  MgSO4:6H2O
  Huntite           7.15     17.39   10.24  CaMg3(CO3)4
  Kainite          -1.10     -1.29   -0.19  KMgClSO4:3H2O
  Kalicinite       -5.09    -15.03   -9.94  KHCO3
  Kieserite        -0.81     -1.08   -0.27  MgSO4:H2O
  Labile_S         -1.13     -6.80   -5.67  Na4Ca(SO4)3:2H2O
  Leonhardite      -0.72     -1.61   -0.89  MgSO4:4H2O
  Leonite          -1.61     -5.59   -3.98  K2Mg(SO4)2:4H2O
  Magnesite         2.68     -5.15   -7.83  MgCO3
  MgCl2_2H2O      -11.55      3.00   14.56  MgCl2:2H2O
  MgCl2_4H2O       -4.33      2.65    6.98  MgCl2:4H2O
  Mirabilite       -1.62     -2.86   -1.24  Na2SO4:10H2O
  Misenite        -57.86    -68.66  -10.81  K8H6(SO4)7
  Nahcolite        -2.85    -13.59  -10.74  NaHCO3
  Natron           -6.29     -7.11   -0.82  Na2CO3:10H2O
  Nesquehonite     -0.52     -5.68   -5.17  MgCO3:3H2O
  Pentahydrite     -0.50     -1.79   -1.28  MgSO4:5H2O
  Pirssonite       -4.97    -14.20   -9.23  Na2Ca(CO3)2:2H2O
  Polyhalite        0.00    -13.74  -13.74  K2MgCa2(SO4)4:2H2O
  Portlandite      -9.83    -15.02   -5.19  Ca(OH)2
  Schoenite        -1.62     -5.95   -4.33  K2Mg(SO4)2:6H2O
  Sylvite          -0.76      0.14    0.90  KCl
  Syngenite        -1.98     -8.41   -6.43  K2Ca(SO4)2:H2O
  Thenardite       -0.80     -1.10   -0.30  Na2SO4
  Trona            -7.90    -19.29  -11.38  Na3H(CO3)2:2H2O

**For a gas, SI = log10(fugacity). Fugacity = pressure * phi / 1 atm.
  For ideal gases, phi = 1.

Reaction step 22.

Using solution 1.	Black Sea water
Using pure phase assemblage 1.	
Using reaction 1.	

Reaction 1.	

	  3.000e-02 moles of the following reaction have been added:

	                 Relative
	Reactant            moles

	H2O                 -1.00000

	                 Relative
	Element             moles
	H                   -2.00000
	O                   -1.00000

-------------------------------Phase assemblage--------------------------------

                                                      Moles in assemblage
Phase               SI  log IAP  log K(T, P)   Initial       Final       Delta

Anhydrite         0.00    -4.25     -4.25    1.200e-03   1.428e-03   2.283e-04
Bischofite       -2.23     2.36      4.59    0.000e+00           0   0.000e+00
CO2(g)           -3.50    -4.97     -1.47    1.000e+01   1.000e+01   5.666e-07
Calcite           0.00    -8.50     -8.50    3.026e-04   2.912e-04  -1.140e-05
Carnallite       -1.96     2.46      4.42    0.000e+00           0   0.000e+00
Epsomite         -0.23    -2.08     -1.85    0.000e+00           0   0.000e+00
Glauberite        0.00    -5.35     -5.35    1.552e-03   9.538e-04  -5.985e-04
Gypsum           -0.01    -4.61     -4.60    0.000e+00           0   0.000e+00
Halite            0.00     1.58      1.58    2.321e-01   2.356e-01   3.547e-03
Hexahydrite      -0.33    -1.90     -1.57    0.000e+00           0   0.000e+00
Kieserite        -0.73    -1.00     -0.27    0.000e+00           0   0.000e+00
Polyhalite        0.00   -13.74    -13.74    1.371e-03   1.565e-03   1.942e-04

-----------------------------Solution composition------------------------------

	Elements           Molality       Moles

	Br                4.814e-02   4.401e-04
	C                 9.159e-03   8.373e-05
	Ca                4.145e-03   3.789e-05
	Cl                6.283e+00   5.744e-02
	K                 2.001e-01   1.830e-03
	Mg                2.899e+00   2.651e-02
	Na                1.843e+00   1.685e-02
	S                 6.208e-01   5.675e-03

----------------------------Description of solution----------------------------

                                       pH  =   7.338      Charge balance
                                       pe  =   4.000      Adjusted to redox equilibrium
      Specific Conductance (µS/cm,  25°C)  = 608724
                          Density (g/cm³)  =   1.26202
                               Volume (L)  =   0.01020
                        Activity of water  =   0.660
                 Ionic strength (mol/kgw)  =   1.122e+01
                       Mass of water (kg)  =   9.142e-03
                 Total alkalinity (eq/kg)  =   1.944e-02
                       Total CO2 (mol/kg)  =   9.159e-03
                         Temperature (°C)  =  25.00
                  Electrical balance (eq)  =   2.359e-03
 Percent error, 100*(Cat-|An|)/(Cat+|An|)  =   1.67
                               Iterations  =   8
                         Gamma iterations  =   3
                      Osmotic coefficient  =   1.93884
                         Density of water  =   0.99704
                                  Total H  = 1.014873e+00
                                  Total O  = 5.303921e-01

----------------------------Distribution of species----------------------------

                                                    MacInnes  MacInnes
                                MacInnes       Log       Log       Log    mole V
   Species          Molality    Activity  Molality  Activity     Gamma   cm³/mol

   OH-             4.363e-06   1.454e-07    -5.360    -6.837    -1.477     11.25
   H+              1.967e-09   4.592e-08    -8.706    -7.338     1.368      0.00
   H2O             5.551e+01   6.599e-01     1.744    -0.181     0.000     18.07
Br            4.814e-02
   Br-             4.814e-02   6.534e-02    -1.317    -1.185     0.133     26.34
C(4)          9.159e-03
   MgCO3           7.298e-03   7.298e-03    -2.137    -2.137     0.000    -17.09
   HCO3-           1.105e-03   7.044e-05    -2.957    -4.152    -1.195     46.42
   CO3-2           7.532e-04   7.023e-08    -3.123    -7.153    -4.030     15.09
   CO2             2.638e-06   1.076e-05    -5.579    -4.968     0.611     34.43
Ca            4.145e-03
   Ca+2            4.145e-03   4.488e-02    -2.383    -1.348     1.035    -12.31
Cl            6.283e+00
   Cl-             6.283e+00   4.780e+00     0.798     0.679    -0.119     20.72
K             2.001e-01
   K+              2.001e-01   2.623e-01    -0.699    -0.581     0.117     14.38
Mg            2.899e+00
   Mg+2            2.890e+00   1.226e+02     0.461     2.089     1.628    -15.55
   MgCO3           7.298e-03   7.298e-03    -2.137    -2.137     0.000    -17.09
   MgOH+           2.230e-03   2.736e-03    -2.652    -2.563     0.089     (0)  
Na            1.843e+00
   Na+             1.843e+00   7.983e+00     0.265     0.902     0.637      2.24
S(6)          6.208e-01
   SO4-2           6.208e-01   1.249e-03    -0.207    -2.903    -2.696     30.68
   HSO4-           5.238e-09   5.466e-09    -8.281    -8.262     0.018     42.44

------------------------------Saturation indices-------------------------------

  Phase               SI** log IAP   log K(298 K,   1 atm)

  Anhydrite         0.00     -4.25   -4.25  CaSO4
  Aragonite        -0.28     -8.50   -8.22  CaCO3
  Arcanite         -2.19     -4.07   -1.88  K2SO4
  Artinite          1.48     21.14   19.66  Mg2CO3(OH)2:3H2O
  Bischofite       -2.23      2.36    4.59  MgCl2:6H2O
  Bloedite         -0.29     -2.64   -2.35  Na2Mg(SO4)2:4H2O
  Brucite          -0.71    -11.59  -10.88  Mg(OH)2
  Burkeite         -6.78     -7.55   -0.77  Na6CO3(SO4)2
  Calcite           0.00     -8.50   -8.50  CaCO3
  Carnallite       -1.96      2.46    4.42  KMgCl3:6H2O
  CO2(g)           -3.50     -4.97   -1.47  CO2	 Pressure   0.0 atm, phi 1.000
  Dolomite          3.52    -13.57  -17.08  CaMg(CO3)2
  Epsomite         -0.23     -2.08   -1.85  MgSO4:7H2O
  Gaylussite       -5.33    -14.75   -9.42  CaNa2(CO3)2:5H2O
  Glaserite        -2.85     -6.65   -3.80  NaK3(SO4)2
  Glauberite        0.00     -5.35   -5.35  Na2Ca(SO4)2
  Goergeyite        3.87    -25.50  -29.37  K2Ca5(SO4)6H2O
  Gypsum           -0.01     -4.61   -4.60  CaSO4:2H2O
  H2O(g)           -1.68     -0.18    1.50  H2O
  Halite            0.00      1.58    1.58  NaCl
  Hexahydrite      -0.33     -1.90   -1.57  MgSO4:6H2O
  Huntite           7.42     17.66   10.24  CaMg3(CO3)4
  Kainite          -1.07     -1.26   -0.19  KMgClSO4:3H2O
  Kalicinite       -5.13    -15.07   -9.94  KHCO3
  Kieserite        -0.73     -1.00   -0.27  MgSO4:H2O
  Labile_S         -1.14     -6.81   -5.67  Na4Ca(SO4)3:2H2O
  Leonhardite      -0.65     -1.54   -0.89  MgSO4:4H2O
  Leonite          -1.62     -5.60   -3.98  K2Mg(SO4)2:4H2O
  Magnesite         2.77     -5.06   -7.83  MgCO3
  MgCl2_2H2O      -11.47      3.09   14.56  MgCl2:2H2O
  MgCl2_4H2O       -4.25      2.73    6.98  MgCl2:4H2O
  Mirabilite       -1.66     -2.90   -1.24  Na2SO4:10H2O
  Misenite        -58.19    -69.00  -10.81  K8H6(SO4)7
  Nahcolite        -2.85    -13.59  -10.74  NaHCO3
  Natron           -6.33     -7.15   -0.82  Na2CO3:10H2O
  Nesquehonite     -0.44     -5.61   -5.17  MgCO3:3H2O
  Pentahydrite     -0.43     -1.72   -1.28  MgSO4:5H2O
  Pirssonite       -4.98    -14.21   -9.23  Na2Ca(CO3)2:2H2O
  Polyhalite        0.00    -13.74  -13.74  K2MgCa2(SO4)4:2H2O
  Portlandite      -9.83    -15.02   -5.19  Ca(OH)2
  Schoenite        -1.64     -5.96   -4.33  K2Mg(SO4)2:6H2O
  Sylvite          -0.80      0.10    0.90  KCl
  Syngenite        -2.07     -8.50   -6.43  K2Ca(SO4)2:H2O
  Thenardite       -0.80     -1.10   -0.30  Na2SO4
  Trona            -7.92    -19.30  -11.38  Na3H(CO3)2:2H2O

**For a gas, SI = log10(fugacity). Fugacity = pressure * phi / 1 atm.
  For ideal gases, phi = 1.

Reaction step 23.

Using solution 1.	Black Sea water
Using pure phase assemblage 1.	
Using reaction 1.	

Reaction 1.	

	  3.000e-02 moles of the following reaction have been added:

	                 Relative
	Reactant            moles

	H2O                 -1.00000

	                 Relative
	Element             moles
	H                   -2.00000
	O                   -1.00000

-------------------------------Phase assemblage--------------------------------

                                                      Moles in assemblage
Phase               SI  log IAP  log K(T, P)   Initial       Final       Delta

Anhydrite         0.00    -4.25     -4.25    1.428e-03   1.738e-03   3.101e-04
Bischofite       -2.16     2.44      4.59    0.000e+00           0   0.000e+00
CO2(g)           -3.50    -4.97     -1.47    1.000e+01   1.000e+01   7.012e-07
Calcite           0.00    -8.50     -8.50    2.912e-04   2.754e-04  -1.574e-05
Carnallite       -1.94     2.49      4.42    0.000e+00           0   0.000e+00
Epsomite         -0.16    -2.01     -1.85    0.000e+00           0   0.000e+00
Glauberite        0.00    -5.35     -5.35    9.538e-04   3.122e-04  -6.416e-04
Gypsum           -0.02    -4.62     -4.60    0.000e+00           0   0.000e+00
Halite            0.00     1.58      1.58    2.356e-01   2.392e-01   3.565e-03
Hexahydrite      -0.26    -1.83     -1.57    0.000e+00           0   0.000e+00
Kieserite        -0.63    -0.90     -0.27    0.000e+00           0   0.000e+00
Polyhalite        0.00   -13.74    -13.74    1.565e-03   1.742e-03   1.768e-04

-----------------------------Solution composition------------------------------

	Elements           Molality       Moles

	Br                5.121e-02   4.401e-04
	C                 1.149e-02   9.877e-05
	Ca                3.669e-03   3.153e-05
	Cl                6.268e+00   5.387e-02
	K                 1.717e-01   1.476e-03
	Mg                3.063e+00   2.633e-02
	Na                1.695e+00   1.456e-02
	S                 6.912e-01   5.941e-03

----------------------------Description of solution----------------------------

                                       pH  =   7.347      Charge balance
                                       pe  =   4.000      Adjusted to redox equilibrium
      Specific Conductance (µS/cm,  25°C)  = 623855
                          Density (g/cm³)  =   1.26784
                               Volume (L)  =   0.00958
                        Activity of water  =   0.652
                 Ionic strength (mol/kgw)  =   1.159e+01
                       Mass of water (kg)  =   8.595e-03
                 Total alkalinity (eq/kg)  =   2.434e-02
                       Total CO2 (mol/kg)  =   1.149e-02
                         Temperature (°C)  =  25.00
                  Electrical balance (eq)  =   2.359e-03
 Percent error, 100*(Cat-|An|)/(Cat+|An|)  =   1.75
                               Iterations  =   8
                         Gamma iterations  =   3
                      Osmotic coefficient  =   1.98737
                         Density of water  =   0.99704
                                  Total H  = 9.541661e-01
                                  Total O  = 5.011480e-01

----------------------------Distribution of species----------------------------

                                                    MacInnes  MacInnes
                                MacInnes       Log       Log       Log    mole V
   Species          Molality    Activity  Molality  Activity     Gamma   cm³/mol

   OH-             4.978e-06   1.466e-07    -5.303    -6.834    -1.531     11.70
   H+              1.763e-09   4.503e-08    -8.754    -7.347     1.407      0.00
   H2O             5.551e+01   6.520e-01     1.744    -0.186     0.000     18.07
Br            5.121e-02
   Br-             5.121e-02   7.146e-02    -1.291    -1.146     0.145     26.34
C(4)          1.149e-02
   MgCO3           9.255e-03   9.255e-03    -2.034    -2.034     0.000    -17.09
   HCO3-           1.256e-03   7.098e-05    -2.901    -4.149    -1.248     47.08
   CO3-2           9.775e-04   7.219e-08    -3.010    -7.142    -4.132     15.50
   CO2             2.531e-06   1.076e-05    -5.597    -4.968     0.629     34.43
Ca            3.669e-03
   Ca+2            3.669e-03   4.366e-02    -2.435    -1.360     1.076    -12.17
Cl            6.268e+00
   Cl-             6.268e+00   4.846e+00     0.797     0.685    -0.112     20.75
K             1.717e-01
   K+              1.717e-01   2.325e-01    -0.765    -0.634     0.132     14.54
Mg            3.063e+00
   Mg+2            3.051e+00   1.513e+02     0.485     2.180     1.695    -15.39
   MgCO3           9.255e-03   9.255e-03    -2.034    -2.034     0.000    -17.09
   MgOH+           2.615e-03   3.401e-03    -2.582    -2.468     0.114     (0)  
Na            1.695e+00
   Na+             1.695e+00   7.874e+00     0.229     0.896     0.667      2.30
S(6)          6.912e-01
   SO4-2           6.912e-01   1.284e-03    -0.160    -2.891    -2.731     30.94
   HSO4-           5.034e-09   5.508e-09    -8.298    -8.259     0.039     42.46

------------------------------Saturation indices-------------------------------

  Phase               SI** log IAP   log K(298 K,   1 atm)

  Anhydrite         0.00     -4.25   -4.25  CaSO4
  Aragonite        -0.28     -8.50   -8.22  CaCO3
  Arcanite         -2.28     -4.16   -1.88  K2SO4
  Artinite          1.66     21.32   19.66  Mg2CO3(OH)2:3H2O
  Bischofite       -2.16      2.44    4.59  MgCl2:6H2O
  Bloedite         -0.21     -2.55   -2.35  Na2Mg(SO4)2:4H2O
  Brucite          -0.61    -11.49  -10.88  Mg(OH)2
  Burkeite         -6.78     -7.55   -0.77  Na6CO3(SO4)2
  Calcite           0.00     -8.50   -8.50  CaCO3
  Carnallite       -1.94      2.49    4.42  KMgCl3:6H2O
  CO2(g)           -3.50     -4.97   -1.47  CO2	 Pressure   0.0 atm, phi 1.000
  Dolomite          3.62    -13.46  -17.08  CaMg(CO3)2
  Epsomite         -0.16     -2.01   -1.85  MgSO4:7H2O
  Gaylussite       -5.36    -14.78   -9.42  CaNa2(CO3)2:5H2O
  Glaserite        -2.98     -6.79   -3.80  NaK3(SO4)2
  Glauberite        0.00     -5.35   -5.35  Na2Ca(SO4)2
  Goergeyite        3.77    -25.60  -29.37  K2Ca5(SO4)6H2O
  Gypsum           -0.02     -4.62   -4.60  CaSO4:2H2O
  H2O(g)           -1.69     -0.19    1.50  H2O
  Halite            0.00      1.58    1.58  NaCl
  Hexahydrite      -0.26     -1.83   -1.57  MgSO4:6H2O
  Huntite           7.73     17.97   10.24  CaMg3(CO3)4
  Kainite          -1.02     -1.22   -0.19  KMgClSO4:3H2O
  Kalicinite       -5.18    -15.12   -9.94  KHCO3
  Kieserite        -0.63     -0.90   -0.27  MgSO4:H2O
  Labile_S         -1.15     -6.82   -5.67  Na4Ca(SO4)3:2H2O
  Leonhardite      -0.57     -1.45   -0.89  MgSO4:4H2O
  Leonite          -1.63     -5.61   -3.98  K2Mg(SO4)2:4H2O
  Magnesite         2.87     -4.96   -7.83  MgCO3
  MgCl2_2H2O      -11.38      3.18   14.56  MgCl2:2H2O
  MgCl2_4H2O       -4.17      2.81    6.98  MgCl2:4H2O
  Mirabilite       -1.72     -2.96   -1.24  Na2SO4:10H2O
  Misenite        -58.58    -69.39  -10.81  K8H6(SO4)7
  Nahcolite        -2.85    -13.59  -10.74  NaHCO3
  Natron           -6.38     -7.21   -0.82  Na2CO3:10H2O
  Nesquehonite     -0.35     -5.52   -5.17  MgCO3:3H2O
  Pentahydrite     -0.36     -1.64   -1.28  MgSO4:5H2O
  Pirssonite       -4.99    -14.22   -9.23  Na2Ca(CO3)2:2H2O
  Polyhalite        0.00    -13.74  -13.74  K2MgCa2(SO4)4:2H2O
  Portlandite      -9.84    -15.03   -5.19  Ca(OH)2
  Schoenite        -1.66     -5.98   -4.33  K2Mg(SO4)2:6H2O
  Sylvite          -0.85      0.05    0.90  KCl
  Syngenite        -2.17     -8.60   -6.43  K2Ca(SO4)2:H2O
  Thenardite       -0.80     -1.10   -0.30  Na2SO4
  Trona            -7.93    -19.31  -11.38  Na3H(CO3)2:2H2O

**For a gas, SI = log10(fugacity). Fugacity = pressure * phi / 1 atm.
  For ideal gases, phi = 1.

------------------
End of simulation.
------------------

------------------------------------
Reading input data for simulation 2.
------------------------------------

------------------------------
End of Run after 0.12 Seconds.
------------------------------

