   Input file: ../examples/ex22
  Output file: ex22.out
Database file: ../database/phreeqc.dat

------------------
Reading data base.
------------------

	SOLUTION_MASTER_SPECIES
	SOLUTION_SPECIES
	PHASES
	EXCHANGE_MASTER_SPECIES
	EXCHANGE_SPECIES
	SURFACE_MASTER_SPECIES
	SURFACE_SPECIES
	RATES
	END
------------------------------------
Reading input data for simulation 1.
------------------------------------

	TITLE Example 22.--Compare experimental CO2 solubilities at high CO2 pressure 
	   with Peng-Robinson calc'ns with fixed-volume gas_phase, 25, 50, 75, 100 oC.
	SOLUTION 1
	GAS_PHASE 1
	    fixed_volume
	    CO2(g) 0
	    H2O(g) 0
	REACTION
	 CO2 1
	 0 27*1
	INCREMENTAL_REACTIONS true
	USER_GRAPH 1 Example 22, CO2 solubility at high pressures, 25 - 100C
	 -plot_tsv_file co2.tsv
	 -axis_titles "Pressure, in atmospheres"               "CO2 concentration, in moles per kilogram water"
	 -axis_scale x_axis 0 500
	 -axis_scale y_axis 0 2
	 -connect_simulations false
	 10 graph_x PR_P("CO2(g)")
	 20 graph_y TOT("C(4)")
	 -end
	USER_GRAPH 2 Example 22, P-Vm of CO2 gas, 25 - 100C
	 -headings 25C
	 -axis_titles "Molar volume of CO2 gas, in liters per mole"               "CO2 pressure, in atmospheres"
	 -axis_scale x_axis 0 1
	 -axis_scale y_axis 0 500
	 -connect_simulations false
	 10 plot_xy gas_vm, gas_p symbol = None
	 -end
	END
-----
TITLE
-----

 Example 22.--Compare experimental CO2 solubilities at high CO2 pressure 
   with Peng-Robinson calc'ns with fixed-volume gas_phase, 25, 50, 75, 100 oC.

-------------------------------------------
Beginning of initial solution calculations.
-------------------------------------------

Initial solution 1.	

-----------------------------Solution composition------------------------------

	Elements           Molality       Moles

	Pure water     

----------------------------Description of solution----------------------------

                                       pH  =   7.000    
                                       pe  =   4.000    
       Specific Conductance (uS/cm, 25 oC) = 0
                          Density (g/cm3)  =   0.99704
                               Volume (L)  =   1.00297
                        Activity of water  =   1.000
                           Ionic strength  =   1.007e-07
                       Mass of water (kg)  =   1.000e+00
                 Total alkalinity (eq/kg)  =   1.217e-09
                    Total carbon (mol/kg)  =   0.000e+00
                       Total CO2 (mol/kg)  =   0.000e+00
                      Temperature (deg C)  =  25.00
                  Electrical balance (eq)  =  -1.217e-09
 Percent error, 100*(Cat-|An|)/(Cat+|An|)  =  -0.60
                               Iterations  =   0
                                  Total H  = 1.110124e+02
                                  Total O  = 5.550622e+01

----------------------------Distribution of species----------------------------

                                               Log       Log       Log    mole V
   Species          Molality    Activity  Molality  Activity     Gamma   cm3/mol

   OH-             1.013e-07   1.012e-07    -6.995    -6.995    -0.000     -4.14
   H+              1.001e-07   1.000e-07    -7.000    -7.000    -0.000      0.00
   H2O             5.551e+01   1.000e+00     1.744     0.000     0.000     18.07
H(0)          1.416e-25
   H2              7.079e-26   7.079e-26   -25.150   -25.150     0.000     28.61
O(0)          0.000e+00
   O2              0.000e+00   0.000e+00   -42.080   -42.080     0.000     30.40

------------------------------Saturation indices-------------------------------

	Phase               SI   log IAP   log K(298 K,   1 atm)

	H2(g)           -22.05    -25.15   -3.10  H2
	H2O(g)           -1.50      0.00    1.50  H2O
	O2(g)           -39.19    -42.08   -2.89  O2


-----------------------------------------
Beginning of batch-reaction calculations.
-----------------------------------------

Reaction step 1.

WARNING: Element C is contained in gas CO2(g) (which has 0.0 mass),
but is not in solution or other phases.
Using solution 1.	
Using gas phase 1.	
Using reaction 1.	

Reaction 1.	

	  0.000e+00 moles of the following reaction have been added:

	                 Relative
	Reactant            moles

	CO2                  1.00000

	                 Relative
	Element             moles
	C                    1.00000
	O                    2.00000

-----------------------------------Gas phase-----------------------------------

Total pressure:  0.03      atmospheres          (Peng-Robinson calculation)
    Gas volume:   1.00e+00 liters
  Molar volume:   7.78e+02 liters/mole
   P * Vm / RT:  0.99952  (Compressibility Factor Z) 

                                                        Moles in gas
                                            ----------------------------------
Component         log P           P    phi     Initial       Final       Delta

CO2(g)           -99.99   0.000e+00  1.000   0.000e+00   0.000e+00   0.000e+00
H2O(g)            -1.50   3.143e-02  1.000   0.000e+00   1.285e-03   1.285e-03

-----------------------------Solution composition------------------------------

	Elements           Molality       Moles

	Pure water     

----------------------------Description of solution----------------------------

                                       pH  =   7.000      Charge balance
                                       pe  =  10.870      Adjusted to redox equilibrium
       Specific Conductance (uS/cm, 25 oC) = 0
                          Density (g/cm3)  =   0.99700
                               Volume (L)  =   1.00299
                        Activity of water  =   1.000
                           Ionic strength  =   1.006e-07
                       Mass of water (kg)  =   1.000e+00
                 Total alkalinity (eq/kg)  =   1.217e-09
                    Total carbon (mol/kg)  =   0.000e+00
                       Total CO2 (mol/kg)  =   0.000e+00
                      Temperature (deg C)  =  25.00
                           Pressure (atm)  =  0.03
                  Electrical balance (eq)  =  -1.217e-09
 Percent error, 100*(Cat-|An|)/(Cat+|An|)  =  -0.60
                               Iterations  =  15
                                  Total H  = 1.110099e+02
                                  Total O  = 5.550493e+01

----------------------------Distribution of species----------------------------

                                               Log       Log       Log    mole V
   Species          Molality    Activity  Molality  Activity     Gamma   cm3/mol

   OH-             1.013e-07   1.012e-07    -6.995    -6.995    -0.000     -4.14
   H+              1.000e-07   1.000e-07    -7.000    -7.000    -0.000      0.00
   H2O             5.551e+01   1.000e+00     1.744    -0.000     0.000     18.07
H(0)          2.578e-39
   H2              1.289e-39   1.289e-39   -38.890   -38.890     0.000     28.61
O(0)          5.019e-15
   O2              2.509e-15   2.509e-15   -14.600   -14.600     0.000     30.40

------------------------------Saturation indices-------------------------------

	Phase               SI   log IAP   log K(298 K,   0 atm)

	H2(g)           -35.79    -38.89   -3.10  H2
	H2O(g)           -1.50     -0.00    1.50  H2O	 Pressure   0.0 atm, phi 1.000.
	O2(g)           -11.71    -14.60   -2.89  O2


Reaction step 2.

Using solution 1.	
Using gas phase 1.	
Using reaction 1.	

Reaction 1.	

	  1.000e+00 moles of the following reaction have been added:

	                 Relative
	Reactant            moles

	CO2                  1.00000

	                 Relative
	Element             moles
	C                    1.00000
	O                    2.00000

-----------------------------------Gas phase-----------------------------------

Total pressure: 13.21      atmospheres          (Peng-Robinson calculation)
    Gas volume:   1.00e+00 liters
  Molar volume:   1.71e+00 liters/mole
   P * Vm / RT:  0.92376  (Compressibility Factor Z) 

                                                        Moles in gas
                                            ----------------------------------
Component         log P           P    phi     Initial       Final       Delta

CO2(g)             1.12   1.318e+01  0.928   0.000e+00   5.830e-01   5.830e-01
H2O(g)            -1.45   3.585e-02  0.878   1.285e-03   1.586e-03   3.008e-04

-----------------------------Solution composition------------------------------

	Elements           Molality       Moles

	C                 4.170e-01   4.170e-01

----------------------------Description of solution----------------------------

                                       pH  =   3.365      Charge balance
                                       pe  =  14.447      Adjusted to redox equilibrium
       Specific Conductance (uS/cm, 25 oC) = 171
                          Density (g/cm3)  =   1.00374
                               Volume (L)  =   1.03489
                        Activity of water  =   0.993
                           Ionic strength  =   4.416e-04
                       Mass of water (kg)  =   1.000e+00
                 Total alkalinity (eq/kg)  =   1.216e-09
                       Total CO2 (mol/kg)  =   4.170e-01
                      Temperature (deg C)  =  25.00
                           Pressure (atm)  = 13.21
                  Electrical balance (eq)  =  -1.216e-09
 Percent error, 100*(Cat-|An|)/(Cat+|An|)  =  -0.00
                               Iterations  =  36
                                  Total H  = 1.110093e+02
                                  Total O  = 5.633861e+01

----------------------------Distribution of species----------------------------

                                               Log       Log       Log    mole V
   Species          Molality    Activity  Molality  Activity     Gamma   cm3/mol

   H+              4.416e-04   4.315e-04    -3.355    -3.365    -0.010      0.00
   OH-             2.413e-11   2.355e-11   -10.618   -10.628    -0.010     -4.07
   H2O             5.551e+01   9.929e-01     1.744    -0.003     0.000     18.06
C(-4)         0.000e+00
   CH4             0.000e+00   0.000e+00  -118.490  -118.490     0.000     32.22
C(4)          4.170e-01
   CO2             4.166e-01   4.166e-01    -0.380    -0.380     0.000     29.14
   HCO3-           4.416e-04   4.312e-04    -3.355    -3.365    -0.010     24.71
   CO3-2           5.233e-11   4.758e-11   -10.281   -10.323    -0.041     -5.42
H(0)          3.314e-39
   H2              1.657e-39   1.657e-39   -38.781   -38.781     0.000     28.60
O(0)          2.916e-15
   O2              1.458e-15   1.458e-15   -14.836   -14.836     0.000     30.38

------------------------------Saturation indices-------------------------------

	Phase               SI   log IAP   log K(298 K,  13 atm)

	CH4(g)         -115.64   -118.49   -2.85  CH4
	CO2(g)            1.09     -0.38   -1.47  CO2	 Pressure  13.2 atm, phi 0.928.
	H2(g)           -35.67    -38.78   -3.11  H2
	H2O(g)           -1.50     -0.00    1.50  H2O	 Pressure   0.0 atm, phi 0.878.
	O2(g)           -11.94    -14.84   -2.90  O2


Reaction step 3.

Using solution 1.	
Using gas phase 1.	
Using reaction 1.	

Reaction 1.	

	  1.000e+00 moles of the following reaction have been added:

	                 Relative
	Reactant            moles

	CO2                  1.00000

	                 Relative
	Element             moles
	C                    1.00000
	O                    2.00000

-----------------------------------Gas phase-----------------------------------

Total pressure: 25.89      atmospheres          (Peng-Robinson calculation)
    Gas volume:   1.00e+00 liters
  Molar volume:   7.97e-01 liters/mole
   P * Vm / RT:  0.84361  (Compressibility Factor Z) 

                                                        Moles in gas
                                            ----------------------------------
Component         log P           P    phi     Initial       Final       Delta

CO2(g)             1.41   2.585e+01  0.861   5.830e-01   1.252e+00   6.694e-01
H2O(g)            -1.38   4.127e-02  0.766   1.586e-03   1.999e-03   4.132e-04

-----------------------------Solution composition------------------------------

	Elements           Molality       Moles

	C                 7.476e-01   7.476e-01

----------------------------Description of solution----------------------------

                                       pH  =   3.237      Charge balance
                                       pe  =   2.249      Adjusted to redox equilibrium
       Specific Conductance (uS/cm, 25 oC) = 230
                          Density (g/cm3)  =   1.00903
                               Volume (L)  =   1.05993
                        Activity of water  =   0.987
                           Ionic strength  =   5.953e-04
                       Mass of water (kg)  =   1.000e+00
                 Total alkalinity (eq/kg)  =   1.216e-09
                       Total CO2 (mol/kg)  =   7.476e-01
                      Temperature (deg C)  =  25.00
                           Pressure (atm)  = 25.89
                  Electrical balance (eq)  =  -1.216e-09
 Percent error, 100*(Cat-|An|)/(Cat+|An|)  =  -0.00
                               Iterations  =  40
                                  Total H  = 1.110084e+02
                                  Total O  = 5.699933e+01

----------------------------Distribution of species----------------------------

                                               Log       Log       Log    mole V
   Species          Molality    Activity  Molality  Activity     Gamma   cm3/mol

   H+              5.953e-04   5.796e-04    -3.225    -3.237    -0.012      0.00
   OH-             1.813e-11   1.763e-11   -10.742   -10.754    -0.012     -4.02
   H2O             5.551e+01   9.873e-01     1.744    -0.006     0.000     18.05
C(-4)         2.352e-20
   CH4             2.352e-20   2.352e-20   -19.629   -19.629     0.000     32.22
C(4)          7.476e-01
   CO2             7.470e-01   7.471e-01    -0.127    -0.127     0.000     29.20
   HCO3-           5.953e-04   5.792e-04    -3.225    -3.237    -0.012     24.73
   CO3-2           5.392e-11   4.832e-11   -10.268   -10.316    -0.048     -5.28
H(0)          1.468e-14
   H2              7.342e-15   7.343e-15   -14.134   -14.134     0.000     28.59
O(0)          0.000e+00
   O2              0.000e+00   0.000e+00   -64.146   -64.146     0.000     30.36

------------------------------Saturation indices-------------------------------

	Phase               SI   log IAP   log K(298 K,  26 atm)

	CH4(g)          -16.77    -19.63   -2.86  CH4
	CO2(g)            1.35     -0.13   -1.47  CO2	 Pressure  25.9 atm, phi 0.861.
	H2(g)           -11.02    -14.13   -3.11  H2
	H2O(g)           -1.50     -0.01    1.49  H2O	 Pressure   0.0 atm, phi 0.766.
	O2(g)           -61.24    -64.15   -2.91  O2


Reaction step 4.

Using solution 1.	
Using gas phase 1.	
Using reaction 1.	

Reaction 1.	

	  1.000e+00 moles of the following reaction have been added:

	                 Relative
	Reactant            moles

	CO2                  1.00000

	                 Relative
	Element             moles
	C                    1.00000
	O                    2.00000

-----------------------------------Gas phase-----------------------------------

Total pressure: 37.44      atmospheres          (Peng-Robinson calculation)
    Gas volume:   1.00e+00 liters
  Molar volume:   4.98e-01 liters/mole
   P * Vm / RT:  0.76133  (Compressibility Factor Z) 

                                                        Moles in gas
                                            ----------------------------------
Component         log P           P    phi     Initial       Final       Delta

CO2(g)             1.57   3.739e+01  0.802   1.252e+00   2.007e+00   7.549e-01
H2O(g)            -1.32   4.772e-02  0.665   1.999e-03   2.562e-03   5.624e-04

-----------------------------Solution composition------------------------------

	Elements           Molality       Moles

	C                 9.928e-01   9.927e-01

----------------------------Description of solution----------------------------

                                       pH  =   3.174      Charge balance
                                       pe  =  14.535      Adjusted to redox equilibrium
       Specific Conductance (uS/cm, 25 oC) = 267
                          Density (g/cm3)  =   1.01296
                               Volume (L)  =   1.07832
                        Activity of water  =   0.983
                           Ionic strength  =   6.895e-04
                       Mass of water (kg)  =   9.999e-01
                 Total alkalinity (eq/kg)  =   1.216e-09
                       Total CO2 (mol/kg)  =   9.928e-01
                      Temperature (deg C)  =  25.00
                           Pressure (atm)  = 37.44
                  Electrical balance (eq)  =  -1.216e-09
 Percent error, 100*(Cat-|An|)/(Cat+|An|)  =  -0.00
                               Iterations  =  38
                                  Total H  = 1.110073e+02
                                  Total O  = 5.748905e+01

----------------------------Distribution of species----------------------------

                                               Log       Log       Log    mole V
   Species          Molality    Activity  Molality  Activity     Gamma   cm3/mol

   H+              6.895e-04   6.701e-04    -3.161    -3.174    -0.012      0.00
   OH-             1.581e-11   1.534e-11   -10.801   -10.814    -0.013     -3.98
   H2O             5.551e+01   9.831e-01     1.744    -0.007     0.000     18.04
C(-4)         0.000e+00
   CH4             0.000e+00   0.000e+00  -117.292  -117.292     0.000     32.22
C(4)          9.928e-01
   CO2             9.921e-01   9.922e-01    -0.003    -0.003     0.000     29.25
   HCO3-           6.895e-04   6.695e-04    -3.161    -3.174    -0.013     24.74
   CO3-2           5.511e-11   4.899e-11   -10.259   -10.310    -0.051     -5.15
H(0)          5.193e-39
   H2              2.596e-39   2.597e-39   -38.586   -38.586     0.000     28.59
O(0)          1.107e-15
   O2              5.534e-16   5.535e-16   -15.257   -15.257     0.000     30.35

------------------------------Saturation indices-------------------------------

	Phase               SI   log IAP   log K(298 K,  37 atm)

	CH4(g)         -114.43   -117.29   -2.86  CH4
	CO2(g)            1.48     -0.00   -1.48  CO2	 Pressure  37.4 atm, phi 0.802.
	H2(g)           -35.47    -38.59   -3.12  H2
	H2O(g)           -1.50     -0.01    1.49  H2O	 Pressure   0.0 atm, phi 0.665.
	O2(g)           -12.34    -15.26   -2.91  O2


Reaction step 5.

Using solution 1.	
Using gas phase 1.	
Using reaction 1.	

Reaction 1.	

	  1.000e+00 moles of the following reaction have been added:

	                 Relative
	Reactant            moles

	CO2                  1.00000

	                 Relative
	Element             moles
	C                    1.00000
	O                    2.00000

-----------------------------------Gas phase-----------------------------------

Total pressure: 47.25      atmospheres          (Peng-Robinson calculation)
    Gas volume:   1.00e+00 liters
  Molar volume:   3.52e-01 liters/mole
   P * Vm / RT:  0.67956  (Compressibility Factor Z) 

                                                        Moles in gas
                                            ----------------------------------
Component         log P           P    phi     Initial       Final       Delta

CO2(g)             1.67   4.720e+01  0.752   2.007e+00   2.839e+00   8.316e-01
H2O(g)            -1.26   5.512e-02  0.578   2.562e-03   3.315e-03   7.534e-04

-----------------------------Solution composition------------------------------

	Elements           Molality       Moles

	C                 1.161e+00   1.161e+00

----------------------------Description of solution----------------------------

                                       pH  =   3.138      Charge balance
                                       pe  =  14.697      Adjusted to redox equilibrium
       Specific Conductance (uS/cm, 25 oC) = 289
                          Density (g/cm3)  =   1.01569
                               Volume (L)  =   1.09084
                        Activity of water  =   0.980
                           Ionic strength  =   7.489e-04
                       Mass of water (kg)  =   9.999e-01
                 Total alkalinity (eq/kg)  =   1.216e-09
                       Total CO2 (mol/kg)  =   1.161e+00
                      Temperature (deg C)  =  25.00
                           Pressure (atm)  = 47.25
                  Electrical balance (eq)  =  -1.216e-09
 Percent error, 100*(Cat-|An|)/(Cat+|An|)  =  -0.00
                               Iterations  =  23
                                  Total H  = 1.110058e+02
                                  Total O  = 5.782519e+01

----------------------------Distribution of species----------------------------

                                               Log       Log       Log    mole V
   Species          Molality    Activity  Molality  Activity     Gamma   cm3/mol

   H+              7.489e-04   7.270e-04    -3.126    -3.138    -0.013      0.00
   OH-             1.467e-11   1.423e-11   -10.833   -10.847    -0.014     -3.94
   H2O             5.551e+01   9.802e-01     1.744    -0.009     0.000     18.03
C(-4)         0.000e+00
   CH4             0.000e+00   0.000e+00  -118.247  -118.247     0.000     32.22
C(4)          1.161e+00
   CO2             1.160e+00   1.161e+00     0.065     0.065     0.000     29.29
   HCO3-           7.489e-04   7.264e-04    -3.126    -3.139    -0.013     24.75
   CO3-2           5.602e-11   4.957e-11   -10.252   -10.305    -0.053     -5.05
H(0)          2.856e-39
   H2              1.428e-39   1.428e-39   -38.845   -38.845     0.000     28.58
O(0)          3.563e-15
   O2              1.782e-15   1.782e-15   -14.749   -14.749     0.000     30.33

------------------------------Saturation indices-------------------------------

	Phase               SI   log IAP   log K(298 K,  47 atm)

	CH4(g)         -115.38   -118.25   -2.87  CH4
	CO2(g)            1.55      0.06   -1.49  CO2	 Pressure  47.2 atm, phi 0.752.
	H2(g)           -35.72    -38.85   -3.12  H2
	H2O(g)           -1.50     -0.01    1.49  H2O	 Pressure   0.1 atm, phi 0.578.
	O2(g)           -11.83    -14.75   -2.92  O2


Reaction step 6.

Using solution 1.	
Using gas phase 1.	
Using reaction 1.	

Reaction 1.	

	  1.000e+00 moles of the following reaction have been added:

	                 Relative
	Reactant            moles

	CO2                  1.00000

	                 Relative
	Element             moles
	C                    1.00000
	O                    2.00000

-----------------------------------Gas phase-----------------------------------

Total pressure: 54.94      atmospheres          (Peng-Robinson calculation)
    Gas volume:   1.00e+00 liters
  Molar volume:   2.68e-01 liters/mole
   P * Vm / RT:  0.60090  (Compressibility Factor Z) 

                                                        Moles in gas
                                            ----------------------------------
Component         log P           P    phi     Initial       Final       Delta

CO2(g)             1.74   5.487e+01  0.713   2.839e+00   3.733e+00   8.937e-01
H2O(g)            -1.20   6.325e-02  0.506   3.315e-03   4.302e-03   9.868e-04

-----------------------------Solution composition------------------------------

	Elements           Molality       Moles

	C                 1.268e+00   1.267e+00

----------------------------Description of solution----------------------------

                                       pH  =   3.118      Charge balance
                                       pe  =  14.828      Adjusted to redox equilibrium
       Specific Conductance (uS/cm, 25 oC) = 303
                          Density (g/cm3)  =   1.01745
                               Volume (L)  =   1.09865
                        Activity of water  =   0.978
                           Ionic strength  =   7.851e-04
                       Mass of water (kg)  =   9.999e-01
                 Total alkalinity (eq/kg)  =   1.216e-09
                       Total CO2 (mol/kg)  =   1.268e+00
                      Temperature (deg C)  =  25.00
                           Pressure (atm)  = 54.94
                  Electrical balance (eq)  =  -1.216e-09
 Percent error, 100*(Cat-|An|)/(Cat+|An|)  =  -0.00
                               Iterations  =  29
                                  Total H  = 1.110038e+02
                                  Total O  = 5.803687e+01

----------------------------Distribution of species----------------------------

                                               Log       Log       Log    mole V
   Species          Molality    Activity  Molality  Activity     Gamma   cm3/mol

   H+              7.851e-04   7.616e-04    -3.105    -3.118    -0.013      0.00
   OH-             1.409e-11   1.365e-11   -10.851   -10.865    -0.014     -3.91
   H2O             5.551e+01   9.784e-01     1.744    -0.009     0.000     18.03
C(-4)         0.000e+00
   CH4             0.000e+00   0.000e+00  -119.092  -119.092     0.000     32.22
C(4)          1.268e+00
   CO2             1.267e+00   1.267e+00     0.103     0.103     0.000     29.32
   HCO3-           7.851e-04   7.609e-04    -3.105    -3.119    -0.014     24.76
   CO3-2           5.669e-11   5.003e-11   -10.246   -10.301    -0.054     -4.97
H(0)          1.706e-39
   H2              8.530e-40   8.532e-40   -39.069   -39.069     0.000     28.58
O(0)          9.788e-15
   O2              4.894e-15   4.895e-15   -14.310   -14.310     0.000     30.32

------------------------------Saturation indices-------------------------------

	Phase               SI   log IAP   log K(298 K,  55 atm)

	CH4(g)         -116.22   -119.09   -2.87  CH4
	CO2(g)            1.59      0.10   -1.49  CO2	 Pressure  54.9 atm, phi 0.713.
	H2(g)           -35.94    -39.07   -3.13  H2
	H2O(g)           -1.50     -0.01    1.49  H2O	 Pressure   0.1 atm, phi 0.506.
	O2(g)           -11.39    -14.31   -2.92  O2


Reaction step 7.

Using solution 1.	
Using gas phase 1.	
Using reaction 1.	

Reaction 1.	

	  1.000e+00 moles of the following reaction have been added:

	                 Relative
	Reactant            moles

	CO2                  1.00000

	                 Relative
	Element             moles
	C                    1.00000
	O                    2.00000

-----------------------------------Gas phase-----------------------------------

Total pressure: 60.35      atmospheres          (Peng-Robinson calculation)
    Gas volume:   1.00e+00 liters
  Molar volume:   2.14e-01 liters/mole
   P * Vm / RT:  0.52740  (Compressibility Factor Z) 

                                                        Moles in gas
                                            ----------------------------------
Component         log P           P    phi     Initial       Final       Delta

CO2(g)             1.78   6.028e+01  0.684   3.733e+00   4.672e+00   9.393e-01
H2O(g)            -1.14   7.177e-02  0.447   4.302e-03   5.562e-03   1.260e-03

-----------------------------Solution composition------------------------------

	Elements           Molality       Moles

	C                 1.328e+00   1.328e+00

----------------------------Description of solution----------------------------

                                       pH  =   3.107      Charge balance
                                       pe  =  14.789      Adjusted to redox equilibrium
       Specific Conductance (uS/cm, 25 oC) = 311
                          Density (g/cm3)  =   1.01848
                               Volume (L)  =   1.10305
                        Activity of water  =   0.977
                           Ionic strength  =   8.056e-04
                       Mass of water (kg)  =   9.999e-01
                 Total alkalinity (eq/kg)  =   1.216e-09
                       Total CO2 (mol/kg)  =   1.328e+00
                      Temperature (deg C)  =  25.00
                           Pressure (atm)  = 60.35
                  Electrical balance (eq)  =  -1.216e-09
 Percent error, 100*(Cat-|An|)/(Cat+|An|)  =  -0.00
                               Iterations  =  33
                                  Total H  = 1.110013e+02
                                  Total O  = 5.815699e+01

----------------------------Distribution of species----------------------------

                                               Log       Log       Log    mole V
   Species          Molality    Activity  Molality  Activity     Gamma   cm3/mol

   H+              8.056e-04   7.812e-04    -3.094    -3.107    -0.013      0.00
   OH-             1.379e-11   1.335e-11   -10.860   -10.874    -0.014     -3.89
   H2O             5.551e+01   9.774e-01     1.744    -0.010     0.000     18.02
C(-4)         0.000e+00
   CH4             0.000e+00   0.000e+00  -118.680  -118.680     0.000     32.22
C(4)          1.328e+00
   CO2             1.328e+00   1.328e+00     0.123     0.123     0.000     29.34
   HCO3-           8.056e-04   7.805e-04    -3.094    -3.108    -0.014     24.77
   CO3-2           5.714e-11   5.035e-11   -10.243   -10.298    -0.055     -4.91
H(0)          2.128e-39
   H2              1.064e-39   1.064e-39   -38.973   -38.973     0.000     28.58
O(0)          6.210e-15
   O2              3.105e-15   3.105e-15   -14.508   -14.508     0.000     30.31

------------------------------Saturation indices-------------------------------

	Phase               SI   log IAP   log K(298 K,  60 atm)

	CH4(g)         -115.80   -118.68   -2.88  CH4
	CO2(g)            1.62      0.12   -1.49  CO2	 Pressure  60.3 atm, phi 0.684.
	H2(g)           -35.84    -38.97   -3.13  H2
	H2O(g)           -1.49     -0.01    1.48  H2O	 Pressure   0.1 atm, phi 0.447.
	O2(g)           -11.58    -14.51   -2.92  O2


Reaction step 8.

Using solution 1.	
Using gas phase 1.	
Using reaction 1.	

Reaction 1.	

	  1.000e+00 moles of the following reaction have been added:

	                 Relative
	Reactant            moles

	CO2                  1.00000

	                 Relative
	Element             moles
	C                    1.00000
	O                    2.00000

-----------------------------------Gas phase-----------------------------------

Total pressure: 63.63      atmospheres          (Peng-Robinson calculation)
    Gas volume:   1.00e+00 liters
  Molar volume:   1.77e-01 liters/mole
   P * Vm / RT:  0.46038  (Compressibility Factor Z) 

                                                        Moles in gas
                                            ----------------------------------
Component         log P           P    phi     Initial       Final       Delta

CO2(g)             1.80   6.355e+01  0.666   4.672e+00   5.642e+00   9.701e-01
H2O(g)            -1.10   8.035e-02  0.400   5.562e-03   7.133e-03   1.571e-03

-----------------------------Solution composition------------------------------

	Elements           Molality       Moles

	C                 1.358e+00   1.358e+00

----------------------------Description of solution----------------------------

                                       pH  =   3.102      Charge balance
                                       pe  =  14.584      Adjusted to redox equilibrium
       Specific Conductance (uS/cm, 25 oC) = 315
                          Density (g/cm3)  =   1.01902
                               Volume (L)  =   1.10518
                        Activity of water  =   0.977
                           Ionic strength  =   8.158e-04
                       Mass of water (kg)  =   9.999e-01
                 Total alkalinity (eq/kg)  =   1.216e-09
                       Total CO2 (mol/kg)  =   1.358e+00
                      Temperature (deg C)  =  25.00
                           Pressure (atm)  = 63.63
                  Electrical balance (eq)  =  -1.216e-09
 Percent error, 100*(Cat-|An|)/(Cat+|An|)  =  -0.00
                               Iterations  =  40
                                  Total H  = 1.109982e+02
                                  Total O  = 5.821529e+01

----------------------------Distribution of species----------------------------

                                               Log       Log       Log    mole V
   Species          Molality    Activity  Molality  Activity     Gamma   cm3/mol

   H+              8.158e-04   7.910e-04    -3.088    -3.102    -0.013      0.00
   OH-             1.366e-11   1.322e-11   -10.865   -10.879    -0.014     -3.88
   H2O             5.551e+01   9.769e-01     1.744    -0.010     0.000     18.02
C(-4)         0.000e+00
   CH4             0.000e+00   0.000e+00  -116.989  -116.989     0.000     32.22
C(4)          1.358e+00
   CO2             1.357e+00   1.358e+00     0.133     0.133     0.000     29.36
   HCO3-           8.158e-04   7.902e-04    -3.088    -3.102    -0.014     24.77
   CO3-2           5.741e-11   5.054e-11   -10.241   -10.296    -0.055     -4.88
H(0)          5.584e-39
   H2              2.792e-39   2.793e-39   -38.554   -38.554     0.000     28.58
O(0)          8.943e-16
   O2              4.471e-16   4.472e-16   -15.350   -15.349     0.000     30.31

------------------------------Saturation indices-------------------------------

	Phase               SI   log IAP   log K(298 K,  64 atm)

	CH4(g)         -114.11   -116.99   -2.88  CH4
	CO2(g)            1.63      0.13   -1.49  CO2	 Pressure  63.5 atm, phi 0.666.
	H2(g)           -35.42    -38.55   -3.13  H2
	H2O(g)           -1.49     -0.01    1.48  H2O	 Pressure   0.1 atm, phi 0.400.
	O2(g)           -12.42    -15.35   -2.93  O2


Reaction step 9.

WARNING: Numerical method failed, switching to numerical derivatives.
WARNING: Maximum iterations exceeded, 100

WARNING: Numerical method failed with this set of convergence parameters.

WARNING: Trying smaller step size, pe step size 10, 5 ... 

Using solution 1.	
Using gas phase 1.	
Using reaction 1.	

Reaction 1.	

	  1.000e+00 moles of the following reaction have been added:

	                 Relative
	Reactant            moles

	CO2                  1.00000

	                 Relative
	Element             moles
	C                    1.00000
	O                    2.00000

-----------------------------------Gas phase-----------------------------------

Total pressure: 65.06      atmospheres          (Peng-Robinson calculation)
    Gas volume:   1.00e+00 liters
  Molar volume:   1.51e-01 liters/mole
   P * Vm / RT:  0.40047  (Compressibility Factor Z) 

                                                        Moles in gas
                                            ----------------------------------
Component         log P           P    phi     Initial       Final       Delta

CO2(g)             1.81   6.497e+01  0.658   5.642e+00   6.631e+00   9.892e-01
H2O(g)            -1.05   8.865e-02  0.363   7.133e-03   9.048e-03   1.915e-03

-----------------------------Solution composition------------------------------

	Elements           Molality       Moles

	C                 1.369e+00   1.369e+00

----------------------------Description of solution----------------------------

                                       pH  =   3.100      Charge balance
                                       pe  =  16.183      Adjusted to redox equilibrium
       Specific Conductance (uS/cm, 25 oC) = 316
                          Density (g/cm3)  =   1.01922
                               Volume (L)  =   1.10592
                        Activity of water  =   0.977
                           Ionic strength  =   8.196e-04
                       Mass of water (kg)  =   9.998e-01
                 Total alkalinity (eq/kg)  =   1.218e-09
                       Total CO2 (mol/kg)  =   1.369e+00
                      Temperature (deg C)  =  25.00
                           Pressure (atm)  = 65.06
                  Electrical balance (eq)  =  -1.217e-09
 Percent error, 100*(Cat-|An|)/(Cat+|An|)  =  -0.00
                               Iterations  =  61
                                  Total H  = 1.109943e+02
                                  Total O  = 5.823499e+01

----------------------------Distribution of species----------------------------

                                               Log       Log       Log    mole V
   Species          Molality    Activity  Molality  Activity     Gamma   cm3/mol

   H+              8.196e-04   7.946e-04    -3.086    -3.100    -0.013      0.00
   OH-             1.361e-11   1.317e-11   -10.866   -10.880    -0.014     -3.87
   H2O             5.551e+01   9.767e-01     1.744    -0.010     0.000     18.02
C(-4)         0.000e+00
   CH4             0.000e+00   0.000e+00  -129.759  -129.758     0.000     32.22
C(4)          1.369e+00
   CO2             1.368e+00   1.369e+00     0.136     0.136     0.000     29.36
   HCO3-           8.196e-04   7.938e-04    -3.086    -3.100    -0.014     24.77
   CO3-2           5.752e-11   5.063e-11   -10.240   -10.296    -0.055     -4.86
H(0)          0.000e+00
   H2              0.000e+00   0.000e+00   -41.748   -41.748     0.000     28.58
O(0)          2.176e-09
   O2              1.088e-09   1.088e-09    -8.963    -8.963     0.000     30.31

------------------------------Saturation indices-------------------------------

	Phase               SI   log IAP   log K(298 K,  65 atm)

	CH4(g)         -126.88   -129.76   -2.88  CH4
	CO2(g)            1.63      0.14   -1.49  CO2	 Pressure  65.0 atm, phi 0.658.
	H2(g)           -38.61    -41.75   -3.13  H2
	H2O(g)           -1.49     -0.01    1.48  H2O	 Pressure   0.1 atm, phi 0.363.
	O2(g)            -6.04     -8.96   -2.93  O2


Reaction step 10.

Using solution 1.	
Using gas phase 1.	
Using reaction 1.	

Reaction 1.	

	  1.000e+00 moles of the following reaction have been added:

	                 Relative
	Reactant            moles

	CO2                  1.00000

	                 Relative
	Element             moles
	C                    1.00000
	O                    2.00000

-----------------------------------Gas phase-----------------------------------

Total pressure: 65.20      atmospheres          (Peng-Robinson calculation)
    Gas volume:   1.00e+00 liters
  Molar volume:   1.31e-01 liters/mole
   P * Vm / RT:  0.34873  (Compressibility Factor Z) 

                                                        Moles in gas
                                            ----------------------------------
Component         log P           P    phi     Initial       Final       Delta

CO2(g)             1.81   6.510e+01  0.657   6.631e+00   7.630e+00   9.992e-01
H2O(g)            -1.01   9.666e-02  0.333   9.048e-03   1.133e-02   2.281e-03

-----------------------------Solution composition------------------------------

	Elements           Molality       Moles

	C                 1.370e+00   1.370e+00

----------------------------Description of solution----------------------------

                                       pH  =   3.100      Charge balance
                                       pe  =  16.183      Adjusted to redox equilibrium
       Specific Conductance (uS/cm, 25 oC) = 317
                          Density (g/cm3)  =   1.01924
                               Volume (L)  =   1.10593
                        Activity of water  =   0.977
                           Ionic strength  =   8.199e-04
                       Mass of water (kg)  =   9.998e-01
                 Total alkalinity (eq/kg)  =   1.217e-09
                       Total CO2 (mol/kg)  =   1.370e+00
                      Temperature (deg C)  =  25.00
                           Pressure (atm)  = 65.20
                  Electrical balance (eq)  =  -1.217e-09
 Percent error, 100*(Cat-|An|)/(Cat+|An|)  =  -0.00
                               Iterations  =   7
                                  Total H  = 1.109898e+02
                                  Total O  = 5.823440e+01

----------------------------Distribution of species----------------------------

                                               Log       Log       Log    mole V
   Species          Molality    Activity  Molality  Activity     Gamma   cm3/mol

   H+              8.199e-04   7.949e-04    -3.086    -3.100    -0.013      0.00
   OH-             1.361e-11   1.317e-11   -10.866   -10.880    -0.014     -3.87
   H2O             5.551e+01   9.767e-01     1.744    -0.010     0.000     18.02
C(-4)         0.000e+00
   CH4             0.000e+00   0.000e+00  -129.758  -129.758     0.000     32.22
C(4)          1.370e+00
   CO2             1.369e+00   1.369e+00     0.136     0.137     0.000     29.36
   HCO3-           8.199e-04   7.941e-04    -3.086    -3.100    -0.014     24.77
   CO3-2           5.753e-11   5.064e-11   -10.240   -10.296    -0.055     -4.86
H(0)          0.000e+00
   H2              0.000e+00   0.000e+00   -41.748   -41.748     0.000     28.58
O(0)          2.176e-09
   O2              1.088e-09   1.088e-09    -8.963    -8.963     0.000     30.31

------------------------------Saturation indices-------------------------------

	Phase               SI   log IAP   log K(298 K,  65 atm)

	CH4(g)         -126.88   -129.76   -2.88  CH4
	CO2(g)            1.63      0.14   -1.49  CO2	 Pressure  65.1 atm, phi 0.657.
	H2(g)           -38.61    -41.75   -3.13  H2
	H2O(g)           -1.49     -0.01    1.48  H2O	 Pressure   0.1 atm, phi 0.333.
	O2(g)            -6.04     -8.96   -2.93  O2


Reaction step 11.

Using solution 1.	
Using gas phase 1.	
Using reaction 1.	

Reaction 1.	

	  1.000e+00 moles of the following reaction have been added:

	                 Relative
	Reactant            moles

	CO2                  1.00000

	                 Relative
	Element             moles
	C                    1.00000
	O                    2.00000

-----------------------------------Gas phase-----------------------------------

Total pressure: 65.19      atmospheres          (Peng-Robinson calculation)
    Gas volume:   1.00e+00 liters
  Molar volume:   1.16e-01 liters/mole
   P * Vm / RT:  0.30820  (Compressibility Factor Z) 

                                                        Moles in gas
                                            ----------------------------------
Component         log P           P    phi     Initial       Final       Delta

CO2(g)             1.81   6.508e+01  0.657   7.630e+00   8.631e+00   1.001e+00
H2O(g)            -0.98   1.053e-01  0.305   1.133e-02   1.397e-02   2.638e-03

-----------------------------Solution composition------------------------------

	Elements           Molality       Moles

	C                 1.370e+00   1.369e+00

----------------------------Description of solution----------------------------

                                       pH  =   3.100      Charge balance
                                       pe  =  16.183      Adjusted to redox equilibrium
       Specific Conductance (uS/cm, 25 oC) = 316
                          Density (g/cm3)  =   1.01923
                               Volume (L)  =   1.10584
                        Activity of water  =   0.977
                           Ionic strength  =   8.197e-04
                       Mass of water (kg)  =   9.997e-01
                 Total alkalinity (eq/kg)  =   1.217e-09
                       Total CO2 (mol/kg)  =   1.370e+00
                      Temperature (deg C)  =  25.00
                           Pressure (atm)  = 65.19
                  Electrical balance (eq)  =  -1.217e-09
 Percent error, 100*(Cat-|An|)/(Cat+|An|)  =  -0.00
                               Iterations  =   7
                                  Total H  = 1.109845e+02
                                  Total O  = 5.823052e+01

----------------------------Distribution of species----------------------------

                                               Log       Log       Log    mole V
   Species          Molality    Activity  Molality  Activity     Gamma   cm3/mol

   H+              8.197e-04   7.948e-04    -3.086    -3.100    -0.013      0.00
   OH-             1.361e-11   1.317e-11   -10.866   -10.880    -0.014     -3.87
   H2O             5.551e+01   9.767e-01     1.744    -0.010     0.000     18.02
C(-4)         0.000e+00
   CH4             0.000e+00   0.000e+00  -129.759  -129.758     0.000     32.22
C(4)          1.370e+00
   CO2             1.369e+00   1.369e+00     0.136     0.136     0.000     29.36
   HCO3-           8.197e-04   7.940e-04    -3.086    -3.100    -0.014     24.77
   CO3-2           5.753e-11   5.064e-11   -10.240   -10.296    -0.055     -4.86
H(0)          0.000e+00
   H2              0.000e+00   0.000e+00   -41.748   -41.748     0.000     28.58
O(0)          2.176e-09
   O2              1.088e-09   1.088e-09    -8.963    -8.963     0.000     30.31

------------------------------Saturation indices-------------------------------

	Phase               SI   log IAP   log K(298 K,  65 atm)

	CH4(g)         -126.88   -129.76   -2.88  CH4
	CO2(g)            1.63      0.14   -1.49  CO2	 Pressure  65.1 atm, phi 0.657.
	H2(g)           -38.61    -41.75   -3.13  H2
	H2O(g)           -1.49     -0.01    1.48  H2O	 Pressure   0.1 atm, phi 0.305.
	O2(g)            -6.04     -8.96   -2.93  O2


Reaction step 12.

Using solution 1.	
Using gas phase 1.	
Using reaction 1.	

Reaction 1.	

	  1.000e+00 moles of the following reaction have been added:

	                 Relative
	Reactant            moles

	CO2                  1.00000

	                 Relative
	Element             moles
	C                    1.00000
	O                    2.00000

-----------------------------------Gas phase-----------------------------------

Total pressure: 65.17      atmospheres          (Peng-Robinson calculation)
    Gas volume:   1.00e+00 liters
  Molar volume:   1.04e-01 liters/mole
   P * Vm / RT:  0.27605  (Compressibility Factor Z) 

                                                        Moles in gas
                                            ----------------------------------
Component         log P           P    phi     Initial       Final       Delta

CO2(g)             1.81   6.506e+01  0.657   8.631e+00   9.632e+00   1.001e+00
H2O(g)            -0.94   1.148e-01  0.280   1.397e-02   1.700e-02   3.028e-03

-----------------------------Solution composition------------------------------

	Elements           Molality       Moles

	C                 1.368e+00   1.368e+00

----------------------------Description of solution----------------------------

                                       pH  =   3.100      Charge balance
                                       pe  =  16.183      Adjusted to redox equilibrium
       Specific Conductance (uS/cm, 25 oC) = 316
                          Density (g/cm3)  =   1.01921
                               Volume (L)  =   1.10568
                        Activity of water  =   0.977
                           Ionic strength  =   8.193e-04
                       Mass of water (kg)  =   9.997e-01
                 Total alkalinity (eq/kg)  =   1.217e-09
                       Total CO2 (mol/kg)  =   1.368e+00
                      Temperature (deg C)  =  25.00
                           Pressure (atm)  = 65.17
                  Electrical balance (eq)  =  -1.217e-09
 Percent error, 100*(Cat-|An|)/(Cat+|An|)  =  -0.00
                               Iterations  =   7
                                  Total H  = 1.109784e+02
                                  Total O  = 5.822472e+01

----------------------------Distribution of species----------------------------

                                               Log       Log       Log    mole V
   Species          Molality    Activity  Molality  Activity     Gamma   cm3/mol

   H+              8.193e-04   7.944e-04    -3.087    -3.100    -0.013      0.00
   OH-             1.361e-11   1.318e-11   -10.866   -10.880    -0.014     -3.87
   H2O             5.551e+01   9.767e-01     1.744    -0.010     0.000     18.02
C(-4)         0.000e+00
   CH4             0.000e+00   0.000e+00  -129.759  -129.759     0.000     32.22
C(4)          1.368e+00
   CO2             1.367e+00   1.368e+00     0.136     0.136     0.000     29.36
   HCO3-           8.193e-04   7.936e-04    -3.087    -3.100    -0.014     24.77
   CO3-2           5.753e-11   5.064e-11   -10.240   -10.296    -0.055     -4.86
H(0)          0.000e+00
   H2              0.000e+00   0.000e+00   -41.748   -41.748     0.000     28.58
O(0)          2.176e-09
   O2              1.088e-09   1.088e-09    -8.963    -8.963     0.000     30.31

------------------------------Saturation indices-------------------------------

	Phase               SI   log IAP   log K(298 K,  65 atm)

	CH4(g)         -126.88   -129.76   -2.88  CH4
	CO2(g)            1.63      0.14   -1.49  CO2	 Pressure  65.1 atm, phi 0.657.
	H2(g)           -38.61    -41.75   -3.13  H2
	H2O(g)           -1.49     -0.01    1.48  H2O	 Pressure   0.1 atm, phi 0.280.
	O2(g)            -6.04     -8.96   -2.93  O2


Reaction step 13.

Using solution 1.	
Using gas phase 1.	
Using reaction 1.	

Reaction 1.	

	  1.000e+00 moles of the following reaction have been added:

	                 Relative
	Reactant            moles

	CO2                  1.00000

	                 Relative
	Element             moles
	C                    1.00000
	O                    2.00000

-----------------------------------Gas phase-----------------------------------

Total pressure: 65.15      atmospheres          (Peng-Robinson calculation)
    Gas volume:   1.00e+00 liters
  Molar volume:   9.39e-02 liters/mole
   P * Vm / RT:  0.24994  (Compressibility Factor Z) 

                                                        Moles in gas
                                            ----------------------------------
Component         log P           P    phi     Initial       Final       Delta

CO2(g)             1.81   6.503e+01  0.656   9.632e+00   1.063e+01   1.002e+00
H2O(g)            -0.90   1.251e-01  0.257   1.700e-02   2.045e-02   3.460e-03

-----------------------------Solution composition------------------------------

	Elements           Molality       Moles

	C                 1.366e+00   1.366e+00

----------------------------Description of solution----------------------------

                                       pH  =   3.100      Charge balance
                                       pe  =  16.182      Adjusted to redox equilibrium
       Specific Conductance (uS/cm, 25 oC) = 316
                          Density (g/cm3)  =   1.01918
                               Volume (L)  =   1.10546
                        Activity of water  =   0.977
                           Ionic strength  =   8.187e-04
                       Mass of water (kg)  =   9.996e-01
                 Total alkalinity (eq/kg)  =   1.217e-09
                       Total CO2 (mol/kg)  =   1.366e+00
                      Temperature (deg C)  =  25.00
                           Pressure (atm)  = 65.15
                  Electrical balance (eq)  =  -1.216e-09
 Percent error, 100*(Cat-|An|)/(Cat+|An|)  =  -0.00
                               Iterations  =   7
                                  Total H  = 1.109715e+02
                                  Total O  = 5.821720e+01

----------------------------Distribution of species----------------------------

                                               Log       Log       Log    mole V
   Species          Molality    Activity  Molality  Activity     Gamma   cm3/mol

   H+              8.187e-04   7.938e-04    -3.087    -3.100    -0.013      0.00
   OH-             1.362e-11   1.319e-11   -10.866   -10.880    -0.014     -3.87
   H2O             5.551e+01   9.768e-01     1.744    -0.010     0.000     18.02
C(-4)         0.000e+00
   CH4             0.000e+00   0.000e+00  -129.760  -129.760     0.000     32.22
C(4)          1.366e+00
   CO2             1.365e+00   1.366e+00     0.135     0.135     0.000     29.36
   HCO3-           8.187e-04   7.930e-04    -3.087    -3.101    -0.014     24.77
   CO3-2           5.752e-11   5.064e-11   -10.240   -10.296    -0.055     -4.86
H(0)          0.000e+00
   H2              0.000e+00   0.000e+00   -41.748   -41.748     0.000     28.58
O(0)          2.176e-09
   O2              1.088e-09   1.088e-09    -8.963    -8.963     0.000     30.31

------------------------------Saturation indices-------------------------------

	Phase               SI   log IAP   log K(298 K,  65 atm)

	CH4(g)         -126.88   -129.76   -2.88  CH4
	CO2(g)            1.63      0.14   -1.49  CO2	 Pressure  65.0 atm, phi 0.656.
	H2(g)           -38.61    -41.75   -3.13  H2
	H2O(g)           -1.49     -0.01    1.48  H2O	 Pressure   0.1 atm, phi 0.257.
	O2(g)            -6.04     -8.96   -2.93  O2


Reaction step 14.

Using solution 1.	
Using gas phase 1.	
Using reaction 1.	

Reaction 1.	

	  1.000e+00 moles of the following reaction have been added:

	                 Relative
	Reactant            moles

	CO2                  1.00000

	                 Relative
	Element             moles
	C                    1.00000
	O                    2.00000

-----------------------------------Gas phase-----------------------------------

Total pressure: 65.14      atmospheres          (Peng-Robinson calculation)
    Gas volume:   1.00e+00 liters
  Molar volume:   8.58e-02 liters/mole
   P * Vm / RT:  0.22830  (Compressibility Factor Z) 

                                                        Moles in gas
                                            ----------------------------------
Component         log P           P    phi     Initial       Final       Delta

CO2(g)             1.81   6.500e+01  0.655   1.063e+01   1.164e+01   1.002e+00
H2O(g)            -0.87   1.362e-01  0.236   2.045e-02   2.439e-02   3.930e-03

-----------------------------Solution composition------------------------------

	Elements           Molality       Moles

	C                 1.364e+00   1.363e+00

----------------------------Description of solution----------------------------

                                       pH  =   3.101      Charge balance
                                       pe  =  16.182      Adjusted to redox equilibrium
       Specific Conductance (uS/cm, 25 oC) = 316
                          Density (g/cm3)  =   1.01915
                               Volume (L)  =   1.10521
                        Activity of water  =   0.977
                           Ionic strength  =   8.181e-04
                       Mass of water (kg)  =   9.995e-01
                 Total alkalinity (eq/kg)  =   1.216e-09
                       Total CO2 (mol/kg)  =   1.364e+00
                      Temperature (deg C)  =  25.00
                           Pressure (atm)  = 65.14
                  Electrical balance (eq)  =  -1.216e-09
 Percent error, 100*(Cat-|An|)/(Cat+|An|)  =  -0.00
                               Iterations  =   7
                                  Total H  = 1.109637e+02
                                  Total O  = 5.820857e+01

----------------------------Distribution of species----------------------------

                                               Log       Log       Log    mole V
   Species          Molality    Activity  Molality  Activity     Gamma   cm3/mol

   H+              8.180e-04   7.932e-04    -3.087    -3.101    -0.013      0.00
   OH-             1.364e-11   1.320e-11   -10.865   -10.879    -0.014     -3.87
   H2O             5.551e+01   9.768e-01     1.744    -0.010     0.000     18.02
C(-4)         0.000e+00
   CH4             0.000e+00   0.000e+00  -129.760  -129.760     0.000     32.22
C(4)          1.364e+00
   CO2             1.363e+00   1.363e+00     0.135     0.135     0.000     29.36
   HCO3-           8.181e-04   7.924e-04    -3.087    -3.101    -0.014     24.77
   CO3-2           5.752e-11   5.063e-11   -10.240   -10.296    -0.055     -4.86
H(0)          0.000e+00
   H2              0.000e+00   0.000e+00   -41.748   -41.748     0.000     28.58
O(0)          2.176e-09
   O2              1.088e-09   1.088e-09    -8.963    -8.963     0.000     30.31

------------------------------Saturation indices-------------------------------

	Phase               SI   log IAP   log K(298 K,  65 atm)

	CH4(g)         -126.88   -129.76   -2.88  CH4
	CO2(g)            1.63      0.13   -1.49  CO2	 Pressure  65.0 atm, phi 0.655.
	H2(g)           -38.61    -41.75   -3.13  H2
	H2O(g)           -1.49     -0.01    1.48  H2O	 Pressure   0.1 atm, phi 0.236.
	O2(g)            -6.04     -8.96   -2.93  O2


Reaction step 15.

Using solution 1.	
Using gas phase 1.	
Using reaction 1.	

Reaction 1.	

	  1.000e+00 moles of the following reaction have been added:

	                 Relative
	Reactant            moles

	CO2                  1.00000

	                 Relative
	Element             moles
	C                    1.00000
	O                    2.00000

-----------------------------------Gas phase-----------------------------------

Total pressure: 65.12      atmospheres          (Peng-Robinson calculation)
    Gas volume:   1.00e+00 liters
  Molar volume:   7.89e-02 liters/mole
   P * Vm / RT:  0.21010  (Compressibility Factor Z) 

                                                        Moles in gas
                                            ----------------------------------
Component         log P           P    phi     Initial       Final       Delta

CO2(g)             1.81   6.497e+01  0.655   1.164e+01   1.264e+01   1.002e+00
H2O(g)            -0.83   1.482e-01  0.217   2.439e-02   2.882e-02   4.439e-03

-----------------------------Solution composition------------------------------

	Elements           Molality       Moles

	C                 1.362e+00   1.361e+00

----------------------------Description of solution----------------------------

                                       pH  =   3.101      Charge balance
                                       pe  =  16.182      Adjusted to redox equilibrium
       Specific Conductance (uS/cm, 25 oC) = 316
                          Density (g/cm3)  =   1.01912
                               Volume (L)  =   1.10496
                        Activity of water  =   0.977
                           Ionic strength  =   8.174e-04
                       Mass of water (kg)  =   9.995e-01
                 Total alkalinity (eq/kg)  =   1.216e-09
                       Total CO2 (mol/kg)  =   1.362e+00
                      Temperature (deg C)  =  25.00
                           Pressure (atm)  = 65.12
                  Electrical balance (eq)  =  -1.215e-09
 Percent error, 100*(Cat-|An|)/(Cat+|An|)  =  -0.00
                               Iterations  =   7
                                  Total H  = 1.109548e+02
                                  Total O  = 5.819957e+01

----------------------------Distribution of species----------------------------

                                               Log       Log       Log    mole V
   Species          Molality    Activity  Molality  Activity     Gamma   cm3/mol

   H+              8.174e-04   7.926e-04    -3.088    -3.101    -0.013      0.00
   OH-             1.365e-11   1.321e-11   -10.865   -10.879    -0.014     -3.87
   H2O             5.551e+01   9.768e-01     1.744    -0.010     0.000     18.02
C(-4)         0.000e+00
   CH4             0.000e+00   0.000e+00  -129.761  -129.761     0.000     32.22
C(4)          1.362e+00
   CO2             1.361e+00   1.361e+00     0.134     0.134     0.000     29.36
   HCO3-           8.174e-04   7.918e-04    -3.088    -3.101    -0.014     24.77
   CO3-2           5.751e-11   5.063e-11   -10.240   -10.296    -0.055     -4.86
H(0)          0.000e+00
   H2              0.000e+00   0.000e+00   -41.748   -41.748     0.000     28.58
O(0)          2.177e-09
   O2              1.088e-09   1.088e-09    -8.963    -8.963     0.000     30.31

------------------------------Saturation indices-------------------------------

	Phase               SI   log IAP   log K(298 K,  65 atm)

	CH4(g)         -126.88   -129.76   -2.88  CH4
	CO2(g)            1.63      0.13   -1.49  CO2	 Pressure  65.0 atm, phi 0.655.
	H2(g)           -38.61    -41.75   -3.13  H2
	H2O(g)           -1.49     -0.01    1.48  H2O	 Pressure   0.1 atm, phi 0.217.
	O2(g)            -6.04     -8.96   -2.93  O2


Reaction step 16.

Using solution 1.	
Using gas phase 1.	
Using reaction 1.	

Reaction 1.	

	  1.000e+00 moles of the following reaction have been added:

	                 Relative
	Reactant            moles

	CO2                  1.00000

	                 Relative
	Element             moles
	C                    1.00000
	O                    2.00000

-----------------------------------Gas phase-----------------------------------

Total pressure: 65.10      atmospheres          (Peng-Robinson calculation)
    Gas volume:   1.00e+00 liters
  Molar volume:   7.31e-02 liters/mole
   P * Vm / RT:  0.19457  (Compressibility Factor Z) 

                                                        Moles in gas
                                            ----------------------------------
Component         log P           P    phi     Initial       Final       Delta

CO2(g)             1.81   6.493e+01  0.654   1.264e+01   1.364e+01   1.002e+00
H2O(g)            -0.79   1.609e-01  0.200   2.882e-02   3.381e-02   4.983e-03

-----------------------------Solution composition------------------------------

	Elements           Molality       Moles

	C                 1.360e+00   1.359e+00

----------------------------Description of solution----------------------------

                                       pH  =   3.101      Charge balance
                                       pe  =  16.181      Adjusted to redox equilibrium
       Specific Conductance (uS/cm, 25 oC) = 315
                          Density (g/cm3)  =   1.01910
                               Volume (L)  =   1.10473
                        Activity of water  =   0.977
                           Ionic strength  =   8.169e-04
                       Mass of water (kg)  =   9.994e-01
                 Total alkalinity (eq/kg)  =   1.215e-09
                       Total CO2 (mol/kg)  =   1.360e+00
                      Temperature (deg C)  =  25.00
                           Pressure (atm)  = 65.10
                  Electrical balance (eq)  =  -1.215e-09
 Percent error, 100*(Cat-|An|)/(Cat+|An|)  =  -0.00
                               Iterations  =   7
                                  Total H  = 1.109448e+02
                                  Total O  = 5.819096e+01

----------------------------Distribution of species----------------------------

                                               Log       Log       Log    mole V
   Species          Molality    Activity  Molality  Activity     Gamma   cm3/mol

   H+              8.169e-04   7.921e-04    -3.088    -3.101    -0.013      0.00
   OH-             1.366e-11   1.322e-11   -10.865   -10.879    -0.014     -3.87
   H2O             5.551e+01   9.769e-01     1.744    -0.010     0.000     18.02
C(-4)         0.000e+00
   CH4             0.000e+00   0.000e+00  -129.762  -129.762     0.000     32.22
C(4)          1.360e+00
   CO2             1.359e+00   1.360e+00     0.133     0.133     0.000     29.36
   HCO3-           8.169e-04   7.913e-04    -3.088    -3.102    -0.014     24.77
   CO3-2           5.751e-11   5.063e-11   -10.240   -10.296    -0.055     -4.86
H(0)          0.000e+00
   H2              0.000e+00   0.000e+00   -41.748   -41.748     0.000     28.58
O(0)          2.177e-09
   O2              1.088e-09   1.089e-09    -8.963    -8.963     0.000     30.31

------------------------------Saturation indices-------------------------------

	Phase               SI   log IAP   log K(298 K,  65 atm)

	CH4(g)         -126.88   -129.76   -2.88  CH4
	CO2(g)            1.63      0.13   -1.49  CO2	 Pressure  64.9 atm, phi 0.654.
	H2(g)           -38.61    -41.75   -3.13  H2
	H2O(g)           -1.49     -0.01    1.48  H2O	 Pressure   0.2 atm, phi 0.200.
	O2(g)            -6.04     -8.96   -2.93  O2


Reaction step 17.

Using solution 1.	
Using gas phase 1.	
Using reaction 1.	

Reaction 1.	

	  1.000e+00 moles of the following reaction have been added:

	                 Relative
	Reactant            moles

	CO2                  1.00000

	                 Relative
	Element             moles
	C                    1.00000
	O                    2.00000

-----------------------------------Gas phase-----------------------------------

Total pressure: 65.07      atmospheres          (Peng-Robinson calculation)
    Gas volume:   1.00e+00 liters
  Molar volume:   6.81e-02 liters/mole
   P * Vm / RT:  0.18117  (Compressibility Factor Z) 

                                                        Moles in gas
                                            ----------------------------------
Component         log P           P    phi     Initial       Final       Delta

CO2(g)             1.81   6.490e+01  0.654   1.364e+01   1.464e+01   1.001e+00
H2O(g)            -0.76   1.745e-01  0.184   3.381e-02   3.937e-02   5.560e-03

-----------------------------Solution composition------------------------------

	Elements           Molality       Moles

	C                 1.359e+00   1.358e+00

----------------------------Description of solution----------------------------

                                       pH  =   3.101      Charge balance
                                       pe  =  16.181      Adjusted to redox equilibrium
       Specific Conductance (uS/cm, 25 oC) = 315
                          Density (g/cm3)  =   1.01909
                               Volume (L)  =   1.10456
                        Activity of water  =   0.977
                           Ionic strength  =   8.166e-04
                       Mass of water (kg)  =   9.993e-01
                 Total alkalinity (eq/kg)  =   1.215e-09
                       Total CO2 (mol/kg)  =   1.359e+00
                      Temperature (deg C)  =  25.00
                           Pressure (atm)  = 65.07
                  Electrical balance (eq)  =  -1.214e-09
 Percent error, 100*(Cat-|An|)/(Cat+|An|)  =  -0.00
                               Iterations  =   7
                                  Total H  = 1.109337e+02
                                  Total O  = 5.818351e+01

----------------------------Distribution of species----------------------------

                                               Log       Log       Log    mole V
   Species          Molality    Activity  Molality  Activity     Gamma   cm3/mol

   H+              8.166e-04   7.918e-04    -3.088    -3.101    -0.013      0.00
   OH-             1.366e-11   1.322e-11   -10.865   -10.879    -0.014     -3.87
   H2O             5.551e+01   9.769e-01     1.744    -0.010     0.000     18.02
C(-4)         0.000e+00
   CH4             0.000e+00   0.000e+00  -129.762  -129.762     0.000     32.22
C(4)          1.359e+00
   CO2             1.358e+00   1.359e+00     0.133     0.133     0.000     29.36
   HCO3-           8.166e-04   7.910e-04    -3.088    -3.102    -0.014     24.77
   CO3-2           5.751e-11   5.063e-11   -10.240   -10.296    -0.055     -4.86
H(0)          0.000e+00
   H2              0.000e+00   0.000e+00   -41.748   -41.748     0.000     28.58
O(0)          2.177e-09
   O2              1.088e-09   1.089e-09    -8.963    -8.963     0.000     30.31

------------------------------Saturation indices-------------------------------

	Phase               SI   log IAP   log K(298 K,  65 atm)

	CH4(g)         -126.88   -129.76   -2.88  CH4
	CO2(g)            1.63      0.13   -1.49  CO2	 Pressure  64.9 atm, phi 0.654.
	H2(g)           -38.61    -41.75   -3.13  H2
	H2O(g)           -1.49     -0.01    1.48  H2O	 Pressure   0.2 atm, phi 0.184.
	O2(g)            -6.04     -8.96   -2.93  O2


Reaction step 18.

Using solution 1.	
Using gas phase 1.	
Using reaction 1.	

Reaction 1.	

	  1.000e+00 moles of the following reaction have been added:

	                 Relative
	Reactant            moles

	CO2                  1.00000

	                 Relative
	Element             moles
	C                    1.00000
	O                    2.00000

-----------------------------------Gas phase-----------------------------------

Total pressure: 70.61      atmospheres          (Peng-Robinson calculation)
    Gas volume:   1.00e+00 liters
  Molar volume:   6.38e-02 liters/mole
   P * Vm / RT:  0.18412  (Compressibility Factor Z) 

                                                        Moles in gas
                                            ----------------------------------
Component         log P           P    phi     Initial       Final       Delta

CO2(g)             1.85   7.041e+01  0.612   1.464e+01   1.563e+01   9.891e-01
H2O(g)            -0.69   2.034e-01  0.159   3.937e-02   4.516e-02   5.797e-03

-----------------------------Solution composition------------------------------

	Elements           Molality       Moles

	C                 1.370e+00   1.369e+00

----------------------------Description of solution----------------------------

                                       pH  =   3.099      Charge balance
                                       pe  =  16.184      Adjusted to redox equilibrium
       Specific Conductance (uS/cm, 25 oC) = 317
                          Density (g/cm3)  =   1.01945
                               Volume (L)  =   1.10506
                        Activity of water  =   0.977
                           Ionic strength  =   8.221e-04
                       Mass of water (kg)  =   9.992e-01
                 Total alkalinity (eq/kg)  =   1.215e-09
                       Total CO2 (mol/kg)  =   1.370e+00
                      Temperature (deg C)  =  25.00
                           Pressure (atm)  = 70.61
                  Electrical balance (eq)  =  -1.214e-09
 Percent error, 100*(Cat-|An|)/(Cat+|An|)  =  -0.00
                               Iterations  =  11
                                  Total H  = 1.109221e+02
                                  Total O  = 5.819959e+01

----------------------------Distribution of species----------------------------

                                               Log       Log       Log    mole V
   Species          Molality    Activity  Molality  Activity     Gamma   cm3/mol

   H+              8.221e-04   7.970e-04    -3.085    -3.099    -0.013      0.00
   OH-             1.364e-11   1.320e-11   -10.865   -10.879    -0.014     -3.85
   H2O             5.551e+01   9.767e-01     1.744    -0.010     0.000     18.01
C(-4)         0.000e+00
   CH4             0.000e+00   0.000e+00  -129.761  -129.761     0.000     32.22
C(4)          1.370e+00
   CO2             1.370e+00   1.370e+00     0.137     0.137     0.000     29.39
   HCO3-           8.221e-04   7.962e-04    -3.085    -3.099    -0.014     24.78
   CO3-2           5.791e-11   5.096e-11   -10.237   -10.293    -0.055     -4.81
H(0)          0.000e+00
   H2              0.000e+00   0.000e+00   -41.751   -41.750     0.000     28.57
O(0)          2.177e-09
   O2              1.089e-09   1.089e-09    -8.963    -8.963     0.000     30.30

------------------------------Saturation indices-------------------------------

	Phase               SI   log IAP   log K(298 K,  71 atm)

	CH4(g)         -126.88   -129.76   -2.88  CH4
	CO2(g)            1.63      0.14   -1.50  CO2	 Pressure  70.4 atm, phi 0.612.
	H2(g)           -38.61    -41.75   -3.14  H2
	H2O(g)           -1.49     -0.01    1.48  H2O	 Pressure   0.2 atm, phi 0.159.
	O2(g)            -6.03     -8.96   -2.93  O2


Reaction step 19.

Using solution 1.	
Using gas phase 1.	
Using reaction 1.	

Reaction 1.	

	  1.000e+00 moles of the following reaction have been added:

	                 Relative
	Reactant            moles

	CO2                  1.00000

	                 Relative
	Element             moles
	C                    1.00000
	O                    2.00000

-----------------------------------Gas phase-----------------------------------

Total pressure: 80.46      atmospheres          (Peng-Robinson calculation)
    Gas volume:   1.00e+00 liters
  Molar volume:   6.00e-02 liters/mole
   P * Vm / RT:  0.19734  (Compressibility Factor Z) 

                                                        Moles in gas
                                            ----------------------------------
Component         log P           P    phi     Initial       Final       Delta

CO2(g)             1.90   8.021e+01  0.551   1.563e+01   1.661e+01   9.823e-01
H2O(g)            -0.61   2.476e-01  0.131   4.516e-02   5.128e-02   6.113e-03

-----------------------------Solution composition------------------------------

	Elements           Molality       Moles

	C                 1.388e+00   1.387e+00

----------------------------Description of solution----------------------------

                                       pH  =   3.094      Charge balance
                                       pe  =  16.189      Adjusted to redox equilibrium
       Specific Conductance (uS/cm, 25 oC) = 321
                          Density (g/cm3)  =   1.02007
                               Volume (L)  =   1.10590
                        Activity of water  =   0.976
                           Ionic strength  =   8.312e-04
                       Mass of water (kg)  =   9.991e-01
                 Total alkalinity (eq/kg)  =   1.215e-09
                       Total CO2 (mol/kg)  =   1.388e+00
                      Temperature (deg C)  =  25.00
                           Pressure (atm)  = 80.46
                  Electrical balance (eq)  =  -1.214e-09
 Percent error, 100*(Cat-|An|)/(Cat+|An|)  =  -0.00
                               Iterations  =  11
                                  Total H  = 1.109099e+02
                                  Total O  = 5.822882e+01

----------------------------Distribution of species----------------------------

                                               Log       Log       Log    mole V
   Species          Molality    Activity  Molality  Activity     Gamma   cm3/mol

   H+              8.312e-04   8.058e-04    -3.080    -3.094    -0.013      0.00
   OH-             1.360e-11   1.317e-11   -10.866   -10.881    -0.014     -3.82
   H2O             5.551e+01   9.764e-01     1.744    -0.010     0.000     18.01
C(-4)         0.000e+00
   CH4             0.000e+00   0.000e+00  -129.761  -129.761     0.000     32.22
C(4)          1.388e+00
   CO2             1.387e+00   1.388e+00     0.142     0.142     0.000     29.43
   HCO3-           8.312e-04   8.050e-04    -3.080    -3.094    -0.014     24.79
   CO3-2           5.862e-11   5.156e-11   -10.232   -10.288    -0.056     -4.71
H(0)          0.000e+00
   H2              0.000e+00   0.000e+00   -41.755   -41.755     0.000     28.57
O(0)          2.177e-09
   O2              1.089e-09   1.089e-09    -8.963    -8.963     0.000     30.28

------------------------------Saturation indices-------------------------------

	Phase               SI   log IAP   log K(298 K,  80 atm)

	CH4(g)         -126.87   -129.76   -2.89  CH4
	CO2(g)            1.65      0.14   -1.50  CO2	 Pressure  80.2 atm, phi 0.551.
	H2(g)           -38.61    -41.76   -3.14  H2
	H2O(g)           -1.49     -0.01    1.48  H2O	 Pressure   0.2 atm, phi 0.131.
	O2(g)            -6.03     -8.96   -2.94  O2


Reaction step 20.

Using solution 1.	
Using gas phase 1.	
Using reaction 1.	

Reaction 1.	

	  1.000e+00 moles of the following reaction have been added:

	                 Relative
	Reactant            moles

	CO2                  1.00000

	                 Relative
	Element             moles
	C                    1.00000
	O                    2.00000

-----------------------------------Gas phase-----------------------------------

Total pressure: 94.76      atmospheres          (Peng-Robinson calculation)
    Gas volume:   1.00e+00 liters
  Molar volume:   5.67e-02 liters/mole
   P * Vm / RT:  0.21947  (Compressibility Factor Z) 

                                                        Moles in gas
                                            ----------------------------------
Component         log P           P    phi     Initial       Final       Delta

CO2(g)             1.98   9.445e+01  0.484   1.661e+01   1.759e+01   9.768e-01
H2O(g)            -0.51   3.098e-01  0.106   5.128e-02   5.770e-02   6.419e-03

-----------------------------Solution composition------------------------------

	Elements           Molality       Moles

	C                 1.412e+00   1.410e+00

----------------------------Description of solution----------------------------

                                       pH  =   3.087      Charge balance
                                       pe  =  16.195      Adjusted to redox equilibrium
       Specific Conductance (uS/cm, 25 oC) = 326
                          Density (g/cm3)  =   1.02093
                               Volume (L)  =   1.10696
                        Activity of water  =   0.976
                           Ionic strength  =   8.438e-04
                       Mass of water (kg)  =   9.989e-01
                 Total alkalinity (eq/kg)  =   1.216e-09
                       Total CO2 (mol/kg)  =   1.412e+00
                      Temperature (deg C)  =  25.00
                           Pressure (atm)  = 94.76
                  Electrical balance (eq)  =  -1.215e-09
 Percent error, 100*(Cat-|An|)/(Cat+|An|)  =  -0.00
                               Iterations  =  13
                                  Total H  = 1.108970e+02
                                  Total O  = 5.826871e+01

----------------------------Distribution of species----------------------------

                                               Log       Log       Log    mole V
   Species          Molality    Activity  Molality  Activity     Gamma   cm3/mol

   H+              8.438e-04   8.178e-04    -3.074    -3.087    -0.014      0.00
   OH-             1.357e-11   1.313e-11   -10.867   -10.882    -0.014     -3.77
   H2O             5.551e+01   9.760e-01     1.744    -0.011     0.000     17.99
C(-4)         0.000e+00
   CH4             0.000e+00   0.000e+00  -129.761  -129.761     0.000     32.22
C(4)          1.412e+00
   CO2             1.411e+00   1.411e+00     0.149     0.150     0.000     29.49
   HCO3-           8.438e-04   8.170e-04    -3.074    -3.088    -0.014     24.80
   CO3-2           5.966e-11   5.243e-11   -10.224   -10.280    -0.056     -4.56
H(0)          0.000e+00
   H2              0.000e+00   0.000e+00   -41.762   -41.762     0.000     28.56
O(0)          2.178e-09
   O2              1.089e-09   1.089e-09    -8.963    -8.963     0.000     30.26

------------------------------Saturation indices-------------------------------

	Phase               SI   log IAP   log K(298 K,  95 atm)

	CH4(g)         -126.86   -129.76   -2.90  CH4
	CO2(g)            1.66      0.15   -1.51  CO2	 Pressure  94.5 atm, phi 0.484.
	H2(g)           -38.61    -41.76   -3.15  H2
	H2O(g)           -1.48     -0.01    1.47  H2O	 Pressure   0.3 atm, phi 0.106.
	O2(g)            -6.02     -8.96   -2.94  O2


Reaction step 21.

Using solution 1.	
Using gas phase 1.	
Using reaction 1.	

Reaction 1.	

	  1.000e+00 moles of the following reaction have been added:

	                 Relative
	Reactant            moles

	CO2                  1.00000

	                 Relative
	Element             moles
	C                    1.00000
	O                    2.00000

-----------------------------------Gas phase-----------------------------------

Total pressure: 114.55      atmospheres          (Peng-Robinson calculation)
    Gas volume:   1.00e+00 liters
  Molar volume:   5.37e-02 liters/mole
   P * Vm / RT:  0.25138  (Compressibility Factor Z) 

                                                        Moles in gas
                                            ----------------------------------
Component         log P           P    phi     Initial       Final       Delta

[...]
   CO3-2           1.621e-10   1.384e-10    -9.790    -9.859    -0.069     -8.37
H(0)          1.228e-32
   H2              6.142e-33   6.143e-33   -32.212   -32.212     0.000     28.33
O(0)          1.620e-09
   O2              8.102e-10   8.104e-10    -9.091    -9.091     0.000     32.23

------------------------------Saturation indices-------------------------------

	Phase               SI   log IAP   log K(373 K, 607 atm)

	CH4(g)          -95.50    -98.84   -3.34  CH4
	CO2(g)            2.43      0.22   -2.21  CO2	 Pressure 592.7 atm, phi 0.452.
	H2(g)           -28.87    -32.21   -3.34  H2
	H2O(g)            0.14     -0.01   -0.15  H2O	 Pressure  14.0 atm, phi 0.099.
	O2(g)            -5.70     -9.09   -3.39  O2


Reaction step 24.

Using solution 1.	
Using gas phase 1.	
Using temperature 4.	
Using reaction 1.	

Reaction 1.	

	  1.000e+00 moles of the following reaction have been added:

	                 Relative
	Reactant            moles

	CO2                  1.00000

	                 Relative
	Element             moles
	C                    1.00000
	O                    2.00000

-----------------------------------Gas phase-----------------------------------

Total pressure: 696.47      atmospheres          (Peng-Robinson calculation)
    Gas volume:   1.00e+00 liters
  Molar volume:   4.58e-02 liters/mole
   P * Vm / RT:  1.04285  (Compressibility Factor Z) 

                                                        Moles in gas
                                            ----------------------------------
Component         log P           P    phi     Initial       Final       Delta

CO2(g)             2.83   6.806e+02  0.452   2.036e+01   2.131e+01   9.475e-01
H2O(g)             1.20   1.592e+01  0.091   4.795e-01   4.984e-01   1.893e-02

-----------------------------Solution composition------------------------------

	Elements           Molality       Moles

	C                 1.703e+00   1.688e+00

----------------------------Description of solution----------------------------

                                       pH  =   2.996      Charge balance
                                       pe  =  11.283      Adjusted to redox equilibrium
       Specific Conductance (uS/cm, 100 oC) = 1274
                          Density (g/cm3)  =   1.01141
                               Volume (L)  =   1.13505
                        Activity of water  =   0.971
                           Ionic strength  =   1.050e-03
                       Mass of water (kg)  =   9.910e-01
                 Total alkalinity (eq/kg)  =   1.217e-09
                       Total CO2 (mol/kg)  =   1.703e+00
                      Temperature (deg C)  = 100.00
                           Pressure (atm)  = 696.47
                  Electrical balance (eq)  =  -1.206e-09
 Percent error, 100*(Cat-|An|)/(Cat+|An|)  =  -0.00
                               Iterations  =  23
                                  Total H  = 1.100156e+02
                                  Total O  = 5.838301e+01

----------------------------Distribution of species----------------------------

                                               Log       Log       Log    mole V
   Species          Molality    Activity  Molality  Activity     Gamma   cm3/mol

   H+              1.050e-03   1.010e-03    -2.979    -2.996    -0.017      0.00
   OH-             1.057e-09   1.015e-09    -8.976    -8.994    -0.018     -8.33
   H2O             5.551e+01   9.710e-01     1.744    -0.013     0.000     18.22
C(-4)         0.000e+00
   CH4             0.000e+00   0.000e+00   -98.853   -98.853     0.000     32.22
C(4)          1.703e+00
   CO2             1.702e+00   1.702e+00     0.231     0.231     0.000     30.12
   HCO3-           1.050e-03   1.009e-03    -2.979    -2.996    -0.018     26.38
   CO3-2           1.764e-10   1.501e-10    -9.753    -9.824    -0.070     -7.30
H(0)          1.138e-32
   H2              5.689e-33   5.690e-33   -32.245   -32.245     0.000     28.30
O(0)          1.621e-09
   O2              8.105e-10   8.107e-10    -9.091    -9.091     0.000     32.03

------------------------------Saturation indices-------------------------------

	Phase               SI   log IAP   log K(373 K, 696 atm)

	CH4(g)          -95.47    -98.85   -3.38  CH4
	CO2(g)            2.49      0.23   -2.26  CO2	 Pressure 680.6 atm, phi 0.452.
	H2(g)           -28.86    -32.24   -3.38  H2
	H2O(g)            0.16     -0.01   -0.17  H2O	 Pressure  15.9 atm, phi 0.091.
	O2(g)            -5.66     -9.09   -3.43  O2


Reaction step 25.

Using solution 1.	
Using gas phase 1.	
Using temperature 4.	
Using reaction 1.	

Reaction 1.	

	  1.000e+00 moles of the following reaction have been added:

	                 Relative
	Reactant            moles

	CO2                  1.00000

	                 Relative
	Element             moles
	C                    1.00000
	O                    2.00000

-----------------------------------Gas phase-----------------------------------

Total pressure: 805.01      atmospheres          (Peng-Robinson calculation)
    Gas volume:   1.00e+00 liters
  Molar volume:   4.39e-02 liters/mole
   P * Vm / RT:  1.15391  (Compressibility Factor Z) 

                                                        Moles in gas
                                            ----------------------------------
Component         log P           P    phi     Initial       Final       Delta

CO2(g)             2.90   7.869e+02  0.459   2.131e+01   2.227e+01   9.571e-01
H2O(g)             1.26   1.816e+01  0.085   4.984e-01   5.139e-01   1.548e-02

-----------------------------Solution composition------------------------------

	Elements           Molality       Moles

	C                 1.747e+00   1.730e+00

----------------------------Description of solution----------------------------

                                       pH  =   2.969      Charge balance
                                       pe  =  11.308      Adjusted to redox equilibrium
       Specific Conductance (uS/cm, 100 oC) = 1356
                          Density (g/cm3)  =   1.01427
                               Volume (L)  =   1.13551
                        Activity of water  =   0.970
                           Ionic strength  =   1.119e-03
                       Mass of water (kg)  =   9.907e-01
                 Total alkalinity (eq/kg)  =   1.217e-09
                       Total CO2 (mol/kg)  =   1.747e+00
                      Temperature (deg C)  = 100.00
                           Pressure (atm)  = 805.01
                  Electrical balance (eq)  =  -1.206e-09
 Percent error, 100*(Cat-|An|)/(Cat+|An|)  =  -0.00
                               Iterations  =  27
                                  Total H  = 1.099846e+02
                                  Total O  = 5.845330e+01

----------------------------Distribution of species----------------------------

                                               Log       Log       Log    mole V
   Species          Molality    Activity  Molality  Activity     Gamma   cm3/mol

   H+              1.119e-03   1.075e-03    -2.951    -2.969    -0.017      0.00
   OH-             1.098e-09   1.053e-09    -8.959    -8.978    -0.018     -8.61
   H2O             5.551e+01   9.703e-01     1.744    -0.013     0.000     18.15
C(-4)         0.000e+00
   CH4             0.000e+00   0.000e+00   -98.873   -98.873     0.000     32.22
C(4)          1.747e+00
   CO2             1.746e+00   1.746e+00     0.242     0.242     0.000     31.23
   HCO3-           1.119e-03   1.073e-03    -2.951    -2.969    -0.018     26.59
   CO3-2           1.943e-10   1.647e-10    -9.711    -9.783    -0.072     -6.08
H(0)          1.038e-32
   H2              5.191e-33   5.192e-33   -32.285   -32.285     0.000     28.27
O(0)          1.621e-09
   O2              8.107e-10   8.109e-10    -9.091    -9.091     0.000     31.81

------------------------------Saturation indices-------------------------------

	Phase               SI   log IAP   log K(373 K, 805 atm)

	CH4(g)          -95.44    -98.87   -3.43  CH4
	CO2(g)            2.56      0.24   -2.32  CO2	 Pressure 786.9 atm, phi 0.459.
	H2(g)           -28.86    -32.28   -3.42  H2
	H2O(g)            0.19     -0.01   -0.20  H2O	 Pressure  18.2 atm, phi 0.085.
	O2(g)            -5.61     -9.09   -3.48  O2


Reaction step 26.

Using solution 1.	
Using gas phase 1.	
Using temperature 4.	
Using reaction 1.	

Reaction 1.	

	  1.000e+00 moles of the following reaction have been added:

	                 Relative
	Reactant            moles

	CO2                  1.00000

	                 Relative
	Element             moles
	C                    1.00000
	O                    2.00000

-----------------------------------Gas phase-----------------------------------

Total pressure: 937.98      atmospheres          (Peng-Robinson calculation)
    Gas volume:   1.00e+00 liters
  Molar volume:   4.21e-02 liters/mole
   P * Vm / RT:  1.28875  (Compressibility Factor Z) 

                                                        Moles in gas
                                            ----------------------------------
Component         log P           P    phi     Initial       Final       Delta

CO2(g)             2.96   9.173e+02  0.476   2.227e+01   2.324e+01   9.745e-01
H2O(g)             1.32   2.072e+01  0.080   5.139e-01   5.251e-01   1.122e-02

-----------------------------Solution composition------------------------------

	Elements           Molality       Moles

	C                 1.773e+00   1.756e+00

----------------------------Description of solution----------------------------

                                       pH  =   2.938      Charge balance
                                       pe  =  11.337      Adjusted to redox equilibrium
       Specific Conductance (uS/cm, 100 oC) = 1457
                          Density (g/cm3)  =   1.01734
                               Volume (L)  =   1.13422
                        Activity of water  =   0.970
                           Ionic strength  =   1.202e-03
                       Mass of water (kg)  =   9.905e-01
                 Total alkalinity (eq/kg)  =   1.217e-09
                       Total CO2 (mol/kg)  =   1.773e+00
                      Temperature (deg C)  = 100.00
                           Pressure (atm)  = 937.98
                  Electrical balance (eq)  =  -1.205e-09
 Percent error, 100*(Cat-|An|)/(Cat+|An|)  =  -0.00
                               Iterations  =  29
                                  Total H  = 1.099622e+02
                                  Total O  = 5.849317e+01

----------------------------Distribution of species----------------------------

                                               Log       Log       Log    mole V
   Species          Molality    Activity  Molality  Activity     Gamma   cm3/mol

   H+              1.202e-03   1.154e-03    -2.920    -2.938    -0.018      0.00
   OH-             1.158e-09   1.108e-09    -8.936    -8.955    -0.019     -8.92
   H2O             5.551e+01   9.698e-01     1.744    -0.013     0.000     18.05
C(-4)         0.000e+00
   CH4             0.000e+00   0.000e+00   -98.899   -98.899     0.000     32.22
C(4)          1.773e+00
   CO2             1.772e+00   1.772e+00     0.248     0.248     0.000     32.49
   HCO3-           1.202e-03   1.152e-03    -2.920    -2.939    -0.018     26.83
   CO3-2           2.171e-10   1.832e-10    -9.663    -9.737    -0.074     -4.69
H(0)          9.286e-33
   H2              4.643e-33   4.644e-33   -32.333   -32.333     0.000     28.23
O(0)          1.622e-09
   O2              8.109e-10   8.111e-10    -9.091    -9.091     0.000     31.56

------------------------------Saturation indices-------------------------------

	Phase               SI   log IAP   log K(373 K, 938 atm)

	CH4(g)          -95.41    -98.90   -3.49  CH4
	CO2(g)            2.64      0.25   -2.39  CO2	 Pressure 917.3 atm, phi 0.476.
	H2(g)           -28.86    -32.33   -3.48  H2
	H2O(g)            0.22     -0.01   -0.23  H2O	 Pressure  20.7 atm, phi 0.080.
	O2(g)            -5.56     -9.09   -3.53  O2


Reaction step 27.

Using solution 1.	
Using gas phase 1.	
Using temperature 4.	
Using reaction 1.	

Reaction 1.	

	  1.000e+00 moles of the following reaction have been added:

	                 Relative
	Reactant            moles

	CO2                  1.00000

	                 Relative
	Element             moles
	C                    1.00000
	O                    2.00000

-----------------------------------Gas phase-----------------------------------

Total pressure: 1104.33      atmospheres          (Peng-Robinson calculation)
    Gas volume:   1.00e+00 liters
  Molar volume:   4.04e-02 liters/mole
   P * Vm / RT:  1.45548  (Compressibility Factor Z) 

                                                        Moles in gas
                                            ----------------------------------
Component         log P           P    phi     Initial       Final       Delta

CO2(g)             3.03   1.081e+03  0.507   2.324e+01   2.425e+01   1.004e+00
H2O(g)             1.37   2.367e+01  0.077   5.251e-01   5.310e-01   5.886e-03

-----------------------------Solution composition------------------------------

	Elements           Molality       Moles

	C                 1.769e+00   1.752e+00

----------------------------Description of solution----------------------------

                                       pH  =   2.902      Charge balance
                                       pe  =  11.369      Adjusted to redox equilibrium
       Specific Conductance (uS/cm, 100 oC) = 1583
                          Density (g/cm3)  =   1.02070
                               Volume (L)  =   1.13004
                        Activity of water  =   0.970
                           Ionic strength  =   1.307e-03
                       Mass of water (kg)  =   9.904e-01
                 Total alkalinity (eq/kg)  =   1.217e-09
                       Total CO2 (mol/kg)  =   1.769e+00
                      Temperature (deg C)  = 100.00
                           Pressure (atm)  = 1104.33
                  Electrical balance (eq)  =  -1.205e-09
 Percent error, 100*(Cat-|An|)/(Cat+|An|)  =  -0.00
                               Iterations  =  35
                                  Total H  = 1.099504e+02
                                  Total O  = 5.847972e+01

----------------------------Distribution of species----------------------------

                                               Log       Log       Log    mole V
   Species          Molality    Activity  Molality  Activity     Gamma   cm3/mol

   H+              1.307e-03   1.253e-03    -2.884    -2.902    -0.018      0.00
   OH-             1.247e-09   1.192e-09    -8.904    -8.924    -0.019     -9.29
   H2O             5.551e+01   9.699e-01     1.744    -0.013     0.000     17.94
C(-4)         0.000e+00
   CH4             0.000e+00   0.000e+00   -98.935   -98.935     0.000     32.22
C(4)          1.769e+00
   CO2             1.768e+00   1.768e+00     0.247     0.248     0.000     33.93
   HCO3-           1.307e-03   1.251e-03    -2.884    -2.903    -0.019     27.10
   CO3-2           2.467e-10   2.071e-10    -9.608    -9.684    -0.076     -3.07
H(0)          8.088e-33
   H2              4.044e-33   4.045e-33   -32.393   -32.393     0.000     28.19
O(0)          1.622e-09
   O2              8.110e-10   8.112e-10    -9.091    -9.091     0.000     31.26

------------------------------Saturation indices-------------------------------

	Phase               SI   log IAP   log K(373 K, 1104 atm)

	CH4(g)          -95.37    -98.94   -3.57  CH4
	CO2(g)            2.74      0.25   -2.49  CO2	 Pressure 1080.7 atm, phi 0.507.
	H2(g)           -28.85    -32.39   -3.54  H2
	H2O(g)            0.26     -0.01   -0.28  H2O	 Pressure  23.7 atm, phi 0.077.
	O2(g)            -5.49     -9.09   -3.60  O2


Reaction step 28.

Using solution 1.	
Using gas phase 1.	
Using temperature 4.	
Using reaction 1.	

Reaction 1.	

	  1.000e+00 moles of the following reaction have been added:

	                 Relative
	Reactant            moles

	CO2                  1.00000

	                 Relative
	Element             moles
	C                    1.00000
	O                    2.00000

-----------------------------------Gas phase-----------------------------------

Total pressure: 1319.07      atmospheres          (Peng-Robinson calculation)
    Gas volume:   1.00e+00 liters
  Molar volume:   3.87e-02 liters/mole
   P * Vm / RT:  1.66777  (Compressibility Factor Z) 

                                                        Moles in gas
                                            ----------------------------------
Component         log P           P    phi     Initial       Final       Delta

CO2(g)             3.11   1.292e+03  0.561   2.425e+01   2.530e+01   1.052e+00
H2O(g)             1.43   2.707e+01  0.076   5.310e-01   5.300e-01  -1.018e-03

-----------------------------Solution composition------------------------------

	Elements           Molality       Moles

	C                 1.717e+00   1.700e+00

----------------------------Description of solution----------------------------

                                       pH  =   2.859      Charge balance
                                       pe  =  11.408      Adjusted to redox equilibrium
       Specific Conductance (uS/cm, 100 oC) = 1748
                          Density (g/cm3)  =   1.02450
                               Volume (L)  =   1.12114
                        Activity of water  =   0.971
                           Ionic strength  =   1.445e-03
                       Mass of water (kg)  =   9.904e-01
                 Total alkalinity (eq/kg)  =   1.215e-09
                       Total CO2 (mol/kg)  =   1.717e+00
                      Temperature (deg C)  = 100.00
                           Pressure (atm)  = 1319.07
                  Electrical balance (eq)  =  -1.204e-09
 Percent error, 100*(Cat-|An|)/(Cat+|An|)  =  -0.00
                               Iterations  =  39
                                  Total H  = 1.099524e+02
                                  Total O  = 5.837679e+01

----------------------------Distribution of species----------------------------

                                               Log       Log       Log    mole V
   Species          Molality    Activity  Molality  Activity     Gamma   cm3/mol

   H+              1.445e-03   1.383e-03    -2.840    -2.859    -0.019      0.00
   OH-             1.388e-09   1.325e-09    -8.858    -8.878    -0.020     -9.70
   H2O             5.551e+01   9.708e-01     1.744    -0.013     0.000     17.81
C(-4)         0.000e+00
   CH4             0.000e+00   0.000e+00   -98.984   -98.984     0.000     32.22
C(4)          1.717e+00
   CO2             1.715e+00   1.716e+00     0.234     0.234     0.000     35.62
   HCO3-           1.445e-03   1.381e-03    -2.840    -2.860    -0.020     27.43
   CO3-2           2.867e-10   2.391e-10    -9.543    -9.621    -0.079     -1.17
H(0)          6.777e-33
   H2              3.389e-33   3.390e-33   -32.470   -32.470     0.000     28.14
O(0)          1.622e-09
   O2              8.110e-10   8.112e-10    -9.091    -9.091     0.000     30.92

------------------------------Saturation indices-------------------------------

	Phase               SI   log IAP   log K(373 K, 1319 atm)

	CH4(g)          -95.32    -98.98   -3.67  CH4
	CO2(g)            2.86      0.23   -2.63  CO2	 Pressure 1292.0 atm, phi 0.561.
	H2(g)           -28.84    -32.47   -3.63  H2
	H2O(g)            0.32     -0.01   -0.33  H2O	 Pressure  27.1 atm, phi 0.076.
	O2(g)            -5.40     -9.09   -3.69  O2


------------------
End of simulation.
------------------

------------------------------------
Reading input data for simulation 5.
------------------------------------

------------------------------
End of Run after 0.18 Seconds.
------------------------------

