   Input file: ../examples/ex22
  Output file: ex22.out
Database file: ../database/phreeqc.dat

------------------
Reading data base.
------------------

	SOLUTION_MASTER_SPECIES
	SOLUTION_SPECIES
	PHASES
	GAS_BINARY_PARAMETERS
	EXCHANGE_MASTER_SPECIES
	EXCHANGE_SPECIES
	SURFACE_MASTER_SPECIES
	SURFACE_SPECIES
	MEAN_GAMMAS
	RATES
	END
------------------------------------
Reading input data for simulation 1.
------------------------------------

	TITLE Example 22.--Compare experimental CO2 solubilities at high CO2 pressure with
	      Peng-Robinson calc`ns with fixed-volume gas_phase, 25, 50, 75, 100, 150 oC.
	PRINT
	warnings 0
	SOLUTION 1
	GAS_PHASE 1
	    fixed_volume
	    CO2(g) 0
	    H2O(g) 0
	REACTION
	 CO2 1
	 0 31*1
	INCREMENTAL_REACTIONS true
	USER_GRAPH 1 Example 22,
	  -chart_title "CO2 solubility at high pressures, 25 - 100 ºC"
	 -plot_csv_file co2.dat
	 -axis_titles "Pressure / atm" "CO2 / (mol/kgw)"
	 -axis_scale x_axis 0 500
	 -axis_scale y_axis 0 2
	 -connect_simulations false
	 10 graph_x PR_P("CO2(g)")
	 20 graph_y TOT("C(4)")
	 -end
	USER_GRAPH 2 Example 22, P-Vm of CO2 gas, 25 - 150 ºC
	 -chart_title "P-Vm of CO2 gas, data from Michels et al., 1935, 1937"
	 -plot_csv_file co2_VP.dat
	 -axis_titles "molar volume of CO2 gas / (L/mol)" "CO2 pressure / atm"
	 -axis_scale x_axis 0 0.7
	 -axis_scale y_axis 0 700
	 -connect_simulations false
	 10 graph_x gas_vm : graph_y gas_p
	END
-----
TITLE
-----

 Example 22.--Compare experimental CO2 solubilities at high CO2 pressure with
      Peng-Robinson calc`ns with fixed-volume gas_phase, 25, 50, 75, 100, 150 oC.

-------------------------------------------
Beginning of initial solution calculations.
-------------------------------------------

Initial solution 1.	

-----------------------------Solution composition------------------------------

	Elements           Molality       Moles

	Pure water     

----------------------------Description of solution----------------------------

                                       pH  =   7.000    
                                       pe  =   4.000    
      Specific Conductance (µS/cm,  25°C)  = 0
                          Density (g/cm³)  =   0.99704
                               Volume (L)  =   1.00297
                        Viscosity (mPa s)  =   0.89002
                        Activity of water  =   1.000
                 Ionic strength (mol/kgw)  =   1.007e-07
                       Mass of water (kg)  =   1.000e+00
                 Total alkalinity (eq/kg)  =   1.217e-09
                         Temperature (°C)  =  25.00
                  Electrical balance (eq)  =  -1.217e-09
 Percent error, 100*(Cat-|An|)/(Cat+|An|)  =  -0.60
                               Iterations  =   0
                                  Total H  = 1.110124e+02
                                  Total O  = 5.550622e+01

----------------------------Distribution of species----------------------------

                                               Log       Log       Log    mole V
   Species          Molality    Activity  Molality  Activity     Gamma   cm³/mol

   OH-             1.013e-07   1.012e-07    -6.995    -6.995    -0.000     -4.14
   H+              1.001e-07   1.000e-07    -7.000    -7.000    -0.000      0.00
   H2O             5.551e+01   1.000e+00     1.744     0.000     0.000     18.07
H(0)          1.416e-25
   H2              7.079e-26   7.079e-26   -25.150   -25.150     0.000     28.61
O(0)          0.000e+00
   O2              0.000e+00   0.000e+00   -42.063   -42.063     0.000     30.40

------------------------------Saturation indices-------------------------------

  Phase               SI** log IAP   log K(298 K,   1 atm)

  H2(g)           -22.05    -25.15   -3.10  H2
  H2O(g)           -1.50      0.00    1.50  H2O
  O2(g)           -39.17    -42.06   -2.89  O2

**For a gas, SI = log10(fugacity). Fugacity = pressure * phi / 1 atm.
  For ideal gases, phi = 1.

-----------------------------------------
Beginning of batch-reaction calculations.
-----------------------------------------

Reaction step 1.

Using solution 1.	
Using gas phase 1.	
Using reaction 1.	

Reaction 1.	

	  0.000e+00 moles of the following reaction have been added:

	                 Relative
	Reactant            moles

	CO2                  1.00000

	                 Relative
	Element             moles
	C                    1.00000
	O                    2.00000

-----------------------------------Gas phase-----------------------------------

Total pressure:  0.03      atmospheres          (Peng-Robinson calculation)
    Gas volume:   1.00e+00 liters
  Molar volume:   7.80e+02 liters/mole
   P * Vm / RT:  0.99951  (Compressibility Factor Z) 

                                                        Moles in gas
                                            ----------------------------------
Component         log P           P    phi     Initial       Final       Delta

CO2(g)           -99.99   0.000e+00  1.000   0.000e+00   0.000e+00   0.000e+00
H2O(g)            -1.50   3.143e-02  1.000   0.000e+00   1.285e-03   1.285e-03

-----------------------------Solution composition------------------------------

	Elements           Molality       Moles

	Pure water     

----------------------------Description of solution----------------------------

                                       pH  =   7.000      Charge balance
                                       pe  =  11.047      Adjusted to redox equilibrium
      Specific Conductance (µS/cm,  25°C)  = 0
                          Density (g/cm³)  =   0.99700
                               Volume (L)  =   1.00299
                        Viscosity (mPa s)  =   0.89004
                        Activity of water  =   1.000
                 Ionic strength (mol/kgw)  =   1.006e-07
                       Mass of water (kg)  =   1.000e+00
                 Total alkalinity (eq/kg)  =   1.217e-09
                         Temperature (°C)  =  25.00
                           Pressure (atm)  =  0.03
                  Electrical balance (eq)  =  -1.217e-09
 Percent error, 100*(Cat-|An|)/(Cat+|An|)  =  -0.60
                               Iterations  =  13
                                  Total H  = 1.110099e+02
                                  Total O  = 5.550493e+01

----------------------------Distribution of species----------------------------

                                               Log       Log       Log    mole V
   Species          Molality    Activity  Molality  Activity     Gamma   cm³/mol

   OH-             1.013e-07   1.012e-07    -6.995    -6.995    -0.000     -4.14
   H+              1.000e-07   1.000e-07    -7.000    -7.000    -0.000      0.00
   H2O             5.551e+01   1.000e+00     1.744    -0.000     0.000     18.07
H(0)          1.141e-39
   H2              5.707e-40   5.707e-40   -39.244   -39.244     0.000     28.61
O(0)          2.665e-14
   O2              1.332e-14   1.332e-14   -13.875   -13.875     0.000     30.40

------------------------------Saturation indices-------------------------------

  Phase               SI** log IAP   log K(298 K,   0 atm)

  H2(g)           -36.14    -39.24   -3.10  H2
  H2O(g)           -1.50     -0.00    1.50  H2O	 Pressure   0.0 atm, phi 1.000
  O2(g)           -10.98    -13.88   -2.89  O2

**For a gas, SI = log10(fugacity). Fugacity = pressure * phi / 1 atm.
  For ideal gases, phi = 1.

Reaction step 2.

Using solution 1.	
Using gas phase 1.	
Using reaction 1.	

Reaction 1.	

	  1.000e+00 moles of the following reaction have been added:

	                 Relative
	Reactant            moles

	CO2                  1.00000

	                 Relative
	Element             moles
	C                    1.00000
	O                    2.00000

-----------------------------------Gas phase-----------------------------------

Total pressure: 13.23      atmospheres          (Peng-Robinson calculation)
    Gas volume:   1.00e+00 liters
  Molar volume:   1.71e+00 liters/mole
   P * Vm / RT:  0.92365  (Compressibility Factor Z) 

                                                        Moles in gas
                                            ----------------------------------
Component         log P           P    phi     Initial       Final       Delta

CO2(g)             1.12   1.319e+01  0.928   0.000e+00   5.839e-01   5.839e-01
H2O(g)            -1.45   3.586e-02  0.878   1.285e-03   1.587e-03   3.014e-04

-----------------------------Solution composition------------------------------

	Elements           Molality       Moles

	C                 4.161e-01   4.161e-01

----------------------------Description of solution----------------------------

                                       pH  =   3.368      Charge balance
                                       pe  =  14.669      Adjusted to redox equilibrium
      Specific Conductance (µS/cm,  25°C)  = 164
                          Density (g/cm³)  =   1.00156
                               Volume (L)  =   1.01670
                        Viscosity (mPa s)  =   0.91920
                        Activity of water  =   0.993
                 Ionic strength (mol/kgw)  =   4.384e-04
                       Mass of water (kg)  =   1.000e+00
                 Total alkalinity (eq/kg)  =   1.216e-09
                       Total CO2 (mol/kg)  =   4.161e-01
                         Temperature (°C)  =  25.00
                           Pressure (atm)  = 13.23
                  Electrical balance (eq)  =  -1.216e-09
 Percent error, 100*(Cat-|An|)/(Cat+|An|)  =  -0.00
                               Iterations  =  36
                                  Total H  = 1.110093e+02
                                  Total O  = 5.633688e+01

----------------------------Distribution of species----------------------------

                                               Log       Log       Log    mole V
   Species          Molality    Activity  Molality  Activity     Gamma   cm³/mol

   H+              4.384e-04   4.284e-04    -3.358    -3.368    -0.010      0.00
   OH-             2.430e-11   2.372e-11   -10.614   -10.625    -0.010     -4.07
   H2O             5.551e+01   9.930e-01     1.744    -0.003     0.000     18.06
C(-4)         0.000e+00
   CH4             0.000e+00   0.000e+00  -120.297  -120.297     0.000     35.47
C(4)          4.161e-01
   CO2             4.095e-01   4.096e-01    -0.388    -0.388     0.000     34.43
   (CO2)2          3.079e-03   3.079e-03    -2.512    -2.512     0.000     68.85
   HCO3-           4.384e-04   4.282e-04    -3.358    -3.368    -0.010     24.61
   CO3-2           5.227e-11   4.754e-11   -10.282   -10.323    -0.041     -3.86
H(0)          1.176e-39
   H2              5.878e-40   5.879e-40   -39.231   -39.231     0.000     28.60
O(0)          2.413e-14
   O2              1.206e-14   1.207e-14   -13.919   -13.918     0.000     30.38

------------------------------Saturation indices-------------------------------

  Phase               SI** log IAP   log K(298 K,  13 atm)

  CH4(g)         -117.49   -120.30   -2.81  CH4
  CO2(g)            1.09     -0.39   -1.48  CO2	 Pressure  13.2 atm, phi 0.928
  H2(g)           -36.12    -39.23   -3.11  H2
  H2O(g)           -1.50     -0.00    1.50  H2O	 Pressure   0.0 atm, phi 0.878
  O2(g)           -11.02    -13.92   -2.90  O2

**For a gas, SI = log10(fugacity). Fugacity = pressure * phi / 1 atm.
  For ideal gases, phi = 1.

Reaction step 3.

Using solution 1.	
Using gas phase 1.	
Using reaction 1.	

Reaction 1.	

	  1.000e+00 moles of the following reaction have been added:

	                 Relative
	Reactant            moles

	CO2                  1.00000

	                 Relative
	Element             moles
	C                    1.00000
	O                    2.00000

-----------------------------------Gas phase-----------------------------------

Total pressure: 25.84      atmospheres          (Peng-Robinson calculation)
    Gas volume:   1.00e+00 liters
  Molar volume:   7.99e-01 liters/mole
   P * Vm / RT:  0.84394  (Compressibility Factor Z) 

                                                        Moles in gas
                                            ----------------------------------
Component         log P           P    phi     Initial       Final       Delta

CO2(g)             1.41   2.580e+01  0.862   5.839e-01   1.249e+00   6.656e-01
H2O(g)            -1.38   4.125e-02  0.766   1.587e-03   1.998e-03   4.108e-04

-----------------------------Solution composition------------------------------

	Elements           Molality       Moles

	C                 7.506e-01   7.505e-01

----------------------------Description of solution----------------------------

                                       pH  =   3.241      Charge balance
                                       pe  =  14.799      Adjusted to redox equilibrium
      Specific Conductance (µS/cm,  25°C)  = 216
                          Density (g/cm³)  =   1.00523
                               Volume (L)  =   1.02762
                        Viscosity (mPa s)  =   0.94202
                        Activity of water  =   0.987
                 Ionic strength (mol/kgw)  =   5.901e-04
                       Mass of water (kg)  =   1.000e+00
                 Total alkalinity (eq/kg)  =   1.216e-09
                       Total CO2 (mol/kg)  =   7.506e-01
                         Temperature (°C)  =  25.00
                           Pressure (atm)  = 25.84
                  Electrical balance (eq)  =  -1.216e-09
 Percent error, 100*(Cat-|An|)/(Cat+|An|)  =  -0.00
                               Iterations  =  30
                                  Total H  = 1.110084e+02
                                  Total O  = 5.700527e+01

----------------------------Distribution of species----------------------------

                                               Log       Log       Log    mole V
   Species          Molality    Activity  Molality  Activity     Gamma   cm³/mol

   H+              5.901e-04   5.746e-04    -3.229    -3.241    -0.012      0.00
   OH-             1.829e-11   1.779e-11   -10.738   -10.750    -0.012     -4.02
   H2O             5.551e+01   9.874e-01     1.744    -0.006     0.000     18.05
C(-4)         0.000e+00
   CH4             0.000e+00   0.000e+00  -120.071  -120.071     0.000     35.49
C(4)          7.506e-01
   CO2             7.304e-01   7.304e-01    -0.136    -0.136     0.000     34.42
   (CO2)2          9.792e-03   9.794e-03    -2.009    -2.009     0.000     68.84
   HCO3-           5.901e-04   5.742e-04    -3.229    -3.241    -0.012     24.66
   CO3-2           5.380e-11   4.823e-11   -10.269   -10.317    -0.047     -3.73
H(0)          1.144e-39
   H2              5.721e-40   5.721e-40   -39.243   -39.243     0.000     28.59
O(0)          2.453e-14
   O2              1.227e-14   1.227e-14   -13.911   -13.911     0.000     30.36

------------------------------Saturation indices-------------------------------

  Phase               SI** log IAP   log K(298 K,  26 atm)

  CH4(g)         -117.25   -120.07   -2.82  CH4
  CO2(g)            1.35     -0.14   -1.48  CO2	 Pressure  25.8 atm, phi 0.862
  H2(g)           -36.13    -39.24   -3.11  H2
  H2O(g)           -1.50     -0.01    1.49  H2O	 Pressure   0.0 atm, phi 0.766
  O2(g)           -11.01    -13.91   -2.91  O2

**For a gas, SI = log10(fugacity). Fugacity = pressure * phi / 1 atm.
  For ideal gases, phi = 1.

Reaction step 4.

Using solution 1.	
Using gas phase 1.	
Using reaction 1.	

Reaction 1.	

	  1.000e+00 moles of the following reaction have been added:

	                 Relative
	Reactant            moles

	CO2                  1.00000

	                 Relative
	Element             moles
	C                    1.00000
	O                    2.00000

-----------------------------------Gas phase-----------------------------------

Total pressure: 37.31      atmospheres          (Peng-Robinson calculation)
    Gas volume:   1.00e+00 liters
  Molar volume:   5.00e-01 liters/mole
   P * Vm / RT:  0.76228  (Compressibility Factor Z) 

                                                        Moles in gas
                                            ----------------------------------
Component         log P           P    phi     Initial       Final       Delta

CO2(g)             1.57   3.726e+01  0.803   1.249e+00   1.998e+00   7.486e-01
H2O(g)            -1.32   4.764e-02  0.666   1.998e-03   2.555e-03   5.569e-04

-----------------------------Solution composition------------------------------

	Elements           Molality       Moles

	C                 1.002e+00   1.002e+00

----------------------------Description of solution----------------------------

                                       pH  =   3.178      Charge balance
                                       pe  =  14.836      Adjusted to redox equilibrium
      Specific Conductance (µS/cm,  25°C)  = 245
                          Density (g/cm³)  =   1.00802
                               Volume (L)  =   1.03574
                        Viscosity (mPa s)  =   0.95902
                        Activity of water  =   0.983
                 Ionic strength (mol/kgw)  =   6.833e-04
                       Mass of water (kg)  =   9.999e-01
                 Total alkalinity (eq/kg)  =   1.216e-09
                       Total CO2 (mol/kg)  =   1.002e+00
                         Temperature (°C)  =  25.00
                           Pressure (atm)  = 37.31
                  Electrical balance (eq)  =  -1.216e-09
 Percent error, 100*(Cat-|An|)/(Cat+|An|)  =  -0.00
                               Iterations  =  28
                                  Total H  = 1.110073e+02
                                  Total O  = 5.750746e+01

----------------------------Distribution of species----------------------------

                                               Log       Log       Log    mole V
   Species          Molality    Activity  Molality  Activity     Gamma   cm³/mol

   H+              6.833e-04   6.641e-04    -3.165    -3.178    -0.012      0.00
   OH-             1.595e-11   1.548e-11   -10.797   -10.810    -0.013     -3.98
   H2O             5.551e+01   9.832e-01     1.744    -0.007     0.000     18.04
C(-4)         0.000e+00
   CH4             0.000e+00   0.000e+00  -119.741  -119.741     0.000     35.51
C(4)          1.002e+00
   CO2             9.669e-01   9.670e-01    -0.015    -0.015     0.000     34.42
   (CO2)2          1.716e-02   1.717e-02    -1.765    -1.765     0.000     68.83
   HCO3-           6.833e-04   6.636e-04    -3.165    -3.178    -0.013     24.70
   CO3-2           5.494e-11   4.887e-11   -10.260   -10.311    -0.051     -3.61
H(0)          1.275e-39
   H2              6.377e-40   6.378e-40   -39.195   -39.195     0.000     28.59
O(0)          1.910e-14
   O2              9.552e-15   9.554e-15   -14.020   -14.020     0.000     30.35

------------------------------Saturation indices-------------------------------

  Phase               SI** log IAP   log K(298 K,  37 atm)

  CH4(g)         -116.92   -119.74   -2.82  CH4
  CO2(g)            1.48     -0.01   -1.49  CO2	 Pressure  37.3 atm, phi 0.803
  H2(g)           -36.08    -39.20   -3.12  H2
  H2O(g)           -1.50     -0.01    1.49  H2O	 Pressure   0.0 atm, phi 0.666
  O2(g)           -11.11    -14.02   -2.91  O2

**For a gas, SI = log10(fugacity). Fugacity = pressure * phi / 1 atm.
  For ideal gases, phi = 1.

Reaction step 5.

Using solution 1.	
Using gas phase 1.	
Using reaction 1.	

Reaction 1.	

	  1.000e+00 moles of the following reaction have been added:

	                 Relative
	Reactant            moles

	CO2                  1.00000

	                 Relative
	Element             moles
	C                    1.00000
	O                    2.00000

-----------------------------------Gas phase-----------------------------------

Total pressure: 47.10      atmospheres          (Peng-Robinson calculation)
    Gas volume:   1.00e+00 liters
  Molar volume:   3.54e-01 liters/mole
   P * Vm / RT:  0.68101  (Compressibility Factor Z) 

                                                        Moles in gas
                                            ----------------------------------
Component         log P           P    phi     Initial       Final       Delta

CO2(g)             1.67   4.704e+01  0.753   1.998e+00   2.823e+00   8.252e-01
H2O(g)            -1.26   5.498e-02  0.580   2.555e-03   3.300e-03   7.455e-04

-----------------------------Solution composition------------------------------

	Elements           Molality       Moles

	C                 1.177e+00   1.177e+00

----------------------------Description of solution----------------------------

                                       pH  =   3.142      Charge balance
                                       pe  =  14.906      Adjusted to redox equilibrium
      Specific Conductance (µS/cm,  25°C)  = 263
                          Density (g/cm³)  =   1.01002
                               Volume (L)  =   1.04130
                        Viscosity (mPa s)  =   0.97075
                        Activity of water  =   0.980
                 Ionic strength (mol/kgw)  =   7.422e-04
                       Mass of water (kg)  =   9.999e-01
                 Total alkalinity (eq/kg)  =   1.216e-09
                       Total CO2 (mol/kg)  =   1.177e+00
                         Temperature (°C)  =  25.00
                           Pressure (atm)  = 47.10
                  Electrical balance (eq)  =  -1.216e-09
 Percent error, 100*(Cat-|An|)/(Cat+|An|)  =  -0.00
                               Iterations  =  22
                                  Total H  = 1.110058e+02
                                  Total O  = 5.785627e+01

----------------------------Distribution of species----------------------------

                                               Log       Log       Log    mole V
   Species          Molality    Activity  Molality  Activity     Gamma   cm³/mol

   H+              7.422e-04   7.206e-04    -3.129    -3.142    -0.013      0.00
   OH-             1.480e-11   1.435e-11   -10.830   -10.843    -0.013     -3.94
   H2O             5.551e+01   9.804e-01     1.744    -0.009     0.000     18.03
C(-4)         0.000e+00
   CH4             0.000e+00   0.000e+00  -119.955  -119.955     0.000     35.52
C(4)          1.177e+00
   CO2             1.129e+00   1.129e+00     0.053     0.053     0.000     34.41
   (CO2)2          2.341e-02   2.341e-02    -1.631    -1.631     0.000     68.82
   HCO3-           7.422e-04   7.200e-04    -3.129    -3.143    -0.013     24.73
   CO3-2           5.582e-11   4.942e-11   -10.253   -10.306    -0.053     -3.52
H(0)          1.075e-39
   H2              5.374e-40   5.375e-40   -39.270   -39.270     0.000     28.58
O(0)          2.620e-14
   O2              1.310e-14   1.310e-14   -13.883   -13.883     0.000     30.33

------------------------------Saturation indices-------------------------------

  Phase               SI** log IAP   log K(298 K,  47 atm)

  CH4(g)         -117.12   -119.95   -2.83  CH4
  CO2(g)            1.55      0.05   -1.50  CO2	 Pressure  47.0 atm, phi 0.753
  H2(g)           -36.15    -39.27   -3.12  H2
  H2O(g)           -1.50     -0.01    1.49  H2O	 Pressure   0.1 atm, phi 0.580
  O2(g)           -10.97    -13.88   -2.92  O2

**For a gas, SI = log10(fugacity). Fugacity = pressure * phi / 1 atm.
  For ideal gases, phi = 1.

Reaction step 6.

Using solution 1.	
Using gas phase 1.	
Using reaction 1.	

Reaction 1.	

	  1.000e+00 moles of the following reaction have been added:

	                 Relative
	Reactant            moles

	CO2                  1.00000

	                 Relative
	Element             moles
	C                    1.00000
	O                    2.00000

-----------------------------------Gas phase-----------------------------------

Total pressure: 54.79      atmospheres          (Peng-Robinson calculation)
    Gas volume:   1.00e+00 liters
  Molar volume:   2.69e-01 liters/mole
   P * Vm / RT:  0.60260  (Compressibility Factor Z) 

                                                        Moles in gas
                                            ----------------------------------
Component         log P           P    phi     Initial       Final       Delta

CO2(g)             1.74   5.473e+01  0.713   2.823e+00   3.712e+00   8.887e-01
H2O(g)            -1.20   6.307e-02  0.507   3.300e-03   4.278e-03   9.775e-04

-----------------------------Solution composition------------------------------

	Elements           Molality       Moles

	C                 1.288e+00   1.288e+00

----------------------------Description of solution----------------------------

                                       pH  =   3.122      Charge balance
                                       pe  =  14.936      Adjusted to redox equilibrium
      Specific Conductance (µS/cm,  25°C)  = 273
                          Density (g/cm³)  =   1.01134
                               Volume (L)  =   1.04476
                        Viscosity (mPa s)  =   0.97819
                        Activity of water  =   0.979
                 Ionic strength (mol/kgw)  =   7.783e-04
                       Mass of water (kg)  =   9.999e-01
                 Total alkalinity (eq/kg)  =   1.216e-09
                       Total CO2 (mol/kg)  =   1.288e+00
                         Temperature (°C)  =  25.00
                           Pressure (atm)  = 54.79
                  Electrical balance (eq)  =  -1.216e-09
 Percent error, 100*(Cat-|An|)/(Cat+|An|)  =  -0.00
                               Iterations  =  26
                                  Total H  = 1.110039e+02
                                  Total O  = 5.807783e+01

----------------------------Distribution of species----------------------------

                                               Log       Log       Log    mole V
   Species          Molality    Activity  Molality  Activity     Gamma   cm³/mol

   H+              7.783e-04   7.552e-04    -3.109    -3.122    -0.013      0.00
   OH-             1.421e-11   1.376e-11   -10.848   -10.861    -0.014     -3.91
   H2O             5.551e+01   9.786e-01     1.744    -0.009     0.000     18.03
C(-4)         0.000e+00
   CH4             0.000e+00   0.000e+00  -120.002  -120.002     0.000     35.53
C(4)          1.288e+00
   CO2             1.232e+00   1.232e+00     0.090     0.091     0.000     34.41
   (CO2)2          2.784e-02   2.785e-02    -1.555    -1.555     0.000     68.82
   HCO3-           7.783e-04   7.545e-04    -3.109    -3.122    -0.014     24.76
   CO3-2           5.646e-11   4.985e-11   -10.248   -10.302    -0.054     -3.44
H(0)          1.017e-39
   H2              5.084e-40   5.085e-40   -39.294   -39.294     0.000     28.58
O(0)          2.870e-14
   O2              1.435e-14   1.435e-14   -13.843   -13.843     0.000     30.32

------------------------------Saturation indices-------------------------------

  Phase               SI** log IAP   log K(298 K,  55 atm)

  CH4(g)         -117.17   -120.00   -2.84  CH4
  CO2(g)            1.59      0.09   -1.50  CO2	 Pressure  54.7 atm, phi 0.713
  H2(g)           -36.17    -39.29   -3.13  H2
  H2O(g)           -1.50     -0.01    1.49  H2O	 Pressure   0.1 atm, phi 0.507
  O2(g)           -10.92    -13.84   -2.92  O2

**For a gas, SI = log10(fugacity). Fugacity = pressure * phi / 1 atm.
  For ideal gases, phi = 1.

Reaction step 7.

Using solution 1.	
Using gas phase 1.	
Using reaction 1.	

Reaction 1.	

	  1.000e+00 moles of the following reaction have been added:

	                 Relative
	Reactant            moles

	CO2                  1.00000

	                 Relative
	Element             moles
	C                    1.00000
	O                    2.00000

-----------------------------------Gas phase-----------------------------------

Total pressure: 60.25      atmospheres          (Peng-Robinson calculation)
    Gas volume:   1.00e+00 liters
  Molar volume:   2.15e-01 liters/mole
   P * Vm / RT:  0.52914  (Compressibility Factor Z) 

                                                        Moles in gas
                                            ----------------------------------
Component         log P           P    phi     Initial       Final       Delta

CO2(g)             1.78   6.018e+01  0.685   3.712e+00   4.648e+00   9.362e-01
H2O(g)            -1.15   7.157e-02  0.448   4.278e-03   5.528e-03   1.251e-03

-----------------------------Solution composition------------------------------

	Elements           Molality       Moles

	C                 1.352e+00   1.352e+00

----------------------------Description of solution----------------------------

                                       pH  =   3.111      Charge balance
                                       pe  =  14.941      Adjusted to redox equilibrium
      Specific Conductance (µS/cm,  25°C)  = 279
                          Density (g/cm³)  =   1.01215
                               Volume (L)  =   1.04668
                        Viscosity (mPa s)  =   0.98243
                        Activity of water  =   0.978
                 Ionic strength (mol/kgw)  =   7.989e-04
                       Mass of water (kg)  =   9.999e-01
                 Total alkalinity (eq/kg)  =   1.216e-09
                       Total CO2 (mol/kg)  =   1.352e+00
                         Temperature (°C)  =  25.00
                           Pressure (atm)  = 60.25
                  Electrical balance (eq)  =  -1.216e-09
 Percent error, 100*(Cat-|An|)/(Cat+|An|)  =  -0.00
                               Iterations  =  33
                                  Total H  = 1.110014e+02
                                  Total O  = 5.820425e+01

----------------------------Distribution of species----------------------------

                                               Log       Log       Log    mole V
   Species          Molality    Activity  Molality  Activity     Gamma   cm³/mol

   H+              7.989e-04   7.748e-04    -3.098    -3.111    -0.013      0.00
   OH-             1.390e-11   1.347e-11   -10.857   -10.871    -0.014     -3.89
   H2O             5.551e+01   9.775e-01     1.744    -0.010     0.000     18.02
C(-4)         0.000e+00
   CH4             0.000e+00   0.000e+00  -119.937  -119.937     0.000     35.54
C(4)          1.352e+00
   CO2             1.290e+00   1.290e+00     0.111     0.111     0.000     34.40
   (CO2)2          3.055e-02   3.055e-02    -1.515    -1.515     0.000     68.81
   HCO3-           7.989e-04   7.741e-04    -3.098    -3.111    -0.014     24.77
   CO3-2           5.690e-11   5.016e-11   -10.245   -10.300    -0.055     -3.39
H(0)          1.038e-39
   H2              5.192e-40   5.192e-40   -39.285   -39.285     0.000     28.58
O(0)          2.715e-14
   O2              1.358e-14   1.358e-14   -13.867   -13.867     0.000     30.31

------------------------------Saturation indices-------------------------------

  Phase               SI** log IAP   log K(298 K,  60 atm)

  CH4(g)         -117.10   -119.94   -2.84  CH4
  CO2(g)            1.62      0.11   -1.50  CO2	 Pressure  60.2 atm, phi 0.685
  H2(g)           -36.15    -39.28   -3.13  H2
  H2O(g)           -1.49     -0.01    1.48  H2O	 Pressure   0.1 atm, phi 0.448
  O2(g)           -10.94    -13.87   -2.92  O2

**For a gas, SI = log10(fugacity). Fugacity = pressure * phi / 1 atm.
  For ideal gases, phi = 1.

Reaction step 8.

Using solution 1.	
Using gas phase 1.	
Using reaction 1.	

Reaction 1.	

	  1.000e+00 moles of the following reaction have been added:

	                 Relative
	Reactant            moles

	CO2                  1.00000

	                 Relative
	Element             moles
	C                    1.00000
	O                    2.00000

-----------------------------------Gas phase-----------------------------------

Total pressure: 63.57      atmospheres          (Peng-Robinson calculation)
    Gas volume:   1.00e+00 liters
  Molar volume:   1.78e-01 liters/mole
   P * Vm / RT:  0.46202  (Compressibility Factor Z) 

                                                        Moles in gas
                                            ----------------------------------
Component         log P           P    phi     Initial       Final       Delta

CO2(g)             1.80   6.349e+01  0.667   4.648e+00   5.617e+00   9.684e-01
H2O(g)            -1.10   8.014e-02  0.401   5.528e-03   7.089e-03   1.561e-03

-----------------------------Solution composition------------------------------

	Elements           Molality       Moles

	C                 1.384e+00   1.383e+00

----------------------------Description of solution----------------------------

                                       pH  =   3.105      Charge balance
                                       pe  =  14.961      Adjusted to redox equilibrium
      Specific Conductance (µS/cm,  25°C)  = 282
                          Density (g/cm³)  =   1.01257
                               Volume (L)  =   1.04759
                        Viscosity (mPa s)  =   0.98452
                        Activity of water  =   0.977
                 Ionic strength (mol/kgw)  =   8.092e-04
                       Mass of water (kg)  =   9.999e-01
                 Total alkalinity (eq/kg)  =   1.216e-09
                       Total CO2 (mol/kg)  =   1.384e+00
                         Temperature (°C)  =  25.00
                           Pressure (atm)  = 63.57
                  Electrical balance (eq)  =  -1.216e-09
 Percent error, 100*(Cat-|An|)/(Cat+|An|)  =  -0.00
                               Iterations  =  32
                                  Total H  = 1.109983e+02
                                  Total O  = 5.826587e+01

----------------------------Distribution of species----------------------------

                                               Log       Log       Log    mole V
   Species          Molality    Activity  Molality  Activity     Gamma   cm³/mol

   H+              8.092e-04   7.847e-04    -3.092    -3.105    -0.013      0.00
   OH-             1.376e-11   1.333e-11   -10.861   -10.875    -0.014     -3.88
   H2O             5.551e+01   9.770e-01     1.744    -0.010     0.000     18.02
C(-4)         0.000e+00
   CH4             0.000e+00   0.000e+00  -120.043  -120.043     0.000     35.54
C(4)          1.384e+00
   CO2             1.319e+00   1.319e+00     0.120     0.120     0.000     34.40
   (CO2)2          3.193e-02   3.194e-02    -1.496    -1.496     0.000     68.81
   HCO3-           8.092e-04   7.839e-04    -3.092    -3.106    -0.014     24.78
   CO3-2           5.716e-11   5.035e-11   -10.243   -10.298    -0.055     -3.36
H(0)          9.686e-40
   H2              4.843e-40   4.844e-40   -39.315   -39.315     0.000     28.58
O(0)          3.095e-14
   O2              1.548e-14   1.548e-14   -13.810   -13.810     0.000     30.31

------------------------------Saturation indices-------------------------------

  Phase               SI** log IAP   log K(298 K,  64 atm)

  CH4(g)         -117.20   -120.04   -2.84  CH4
  CO2(g)            1.63      0.12   -1.51  CO2	 Pressure  63.5 atm, phi 0.667
  H2(g)           -36.18    -39.31   -3.13  H2
  H2O(g)           -1.49     -0.01    1.48  H2O	 Pressure   0.1 atm, phi 0.401
  O2(g)           -10.88    -13.81   -2.93  O2

**For a gas, SI = log10(fugacity). Fugacity = pressure * phi / 1 atm.
  For ideal gases, phi = 1.

Reaction step 9.

Using solution 1.	
Using gas phase 1.	
Using reaction 1.	

Reaction 1.	

	  1.000e+00 moles of the following reaction have been added:

	                 Relative
	Reactant            moles

	CO2                  1.00000

	                 Relative
	Element             moles
	C                    1.00000
	O                    2.00000

-----------------------------------Gas phase-----------------------------------

Total pressure: 65.04      atmospheres          (Peng-Robinson calculation)
    Gas volume:   1.00e+00 liters
  Molar volume:   1.51e-01 liters/mole
   P * Vm / RT:  0.40194  (Compressibility Factor Z) 

                                                        Moles in gas
                                            ----------------------------------
Component         log P           P    phi     Initial       Final       Delta

CO2(g)             1.81   6.495e+01  0.658   5.617e+00   6.605e+00   9.885e-01
H2O(g)            -1.05   8.845e-02  0.364   7.089e-03   8.995e-03   1.905e-03

-----------------------------Solution composition------------------------------

	Elements           Molality       Moles

	C                 1.395e+00   1.395e+00

----------------------------Description of solution----------------------------

                                       pH  =   3.103      Charge balance
                                       pe  =  14.949      Adjusted to redox equilibrium
      Specific Conductance (µS/cm,  25°C)  = 283
                          Density (g/cm³)  =   1.01273
                               Volume (L)  =   1.04788
                        Viscosity (mPa s)  =   0.98529
                        Activity of water  =   0.977
                 Ionic strength (mol/kgw)  =   8.131e-04
                       Mass of water (kg)  =   9.998e-01
                 Total alkalinity (eq/kg)  =   1.216e-09
                       Total CO2 (mol/kg)  =   1.395e+00
                         Temperature (°C)  =  25.00
                           Pressure (atm)  = 65.04
                  Electrical balance (eq)  =  -1.216e-09
 Percent error, 100*(Cat-|An|)/(Cat+|An|)  =  -0.00
                               Iterations  =  40
                                  Total H  = 1.109944e+02
                                  Total O  = 5.828699e+01

----------------------------Distribution of species----------------------------

                                               Log       Log       Log    mole V
   Species          Molality    Activity  Molality  Activity     Gamma   cm³/mol

   H+              8.131e-04   7.884e-04    -3.090    -3.103    -0.013      0.00
   OH-             1.372e-11   1.328e-11   -10.863   -10.877    -0.014     -3.87
   H2O             5.551e+01   9.768e-01     1.744    -0.010     0.000     18.02
C(-4)         0.000e+00
   CH4             0.000e+00   0.000e+00  -119.926  -119.926     0.000     35.54
C(4)          1.395e+00
   CO2             1.329e+00   1.330e+00     0.124     0.124     0.000     34.40
   (CO2)2          3.244e-02   3.245e-02    -1.489    -1.489     0.000     68.81
   HCO3-           8.131e-04   7.876e-04    -3.090    -3.104    -0.014     24.79
   CO3-2           5.727e-11   5.043e-11   -10.242   -10.297    -0.055     -3.35
H(0)          1.032e-39
   H2              5.162e-40   5.163e-40   -39.287   -39.287     0.000     28.58
O(0)          2.715e-14
   O2              1.358e-14   1.358e-14   -13.867   -13.867     0.000     30.31

------------------------------Saturation indices-------------------------------

  Phase               SI** log IAP   log K(298 K,  65 atm)

  CH4(g)         -117.08   -119.93   -2.84  CH4
  CO2(g)            1.63      0.12   -1.51  CO2	 Pressure  65.0 atm, phi 0.658
  H2(g)           -36.15    -39.29   -3.13  H2
  H2O(g)           -1.49     -0.01    1.48  H2O	 Pressure   0.1 atm, phi 0.364
  O2(g)           -10.94    -13.87   -2.93  O2

**For a gas, SI = log10(fugacity). Fugacity = pressure * phi / 1 atm.
  For ideal gases, phi = 1.

Reaction step 10.

Using solution 1.	
Using gas phase 1.	
Using reaction 1.	

Reaction 1.	

	  1.000e+00 moles of the following reaction have been added:

	                 Relative
	Reactant            moles

	CO2                  1.00000

	                 Relative
	Element             moles
	C                    1.00000
	O                    2.00000

-----------------------------------Gas phase-----------------------------------

Total pressure: 65.20      atmospheres          (Peng-Robinson calculation)
    Gas volume:   1.00e+00 liters
  Molar volume:   1.31e-01 liters/mole
   P * Vm / RT:  0.34993  (Compressibility Factor Z) 

                                                        Moles in gas
                                            ----------------------------------
Component         log P           P    phi     Initial       Final       Delta

CO2(g)             1.81   6.510e+01  0.657   6.605e+00   7.604e+00   9.990e-01
H2O(g)            -1.02   9.646e-02  0.334   8.995e-03   1.127e-02   2.272e-03

-----------------------------Solution composition------------------------------

	Elements           Molality       Moles

	C                 1.396e+00   1.396e+00

----------------------------Description of solution----------------------------

                                       pH  =   3.103      Charge balance
                                       pe  =  14.917      Adjusted to redox equilibrium
      Specific Conductance (µS/cm,  25°C)  = 283
                          Density (g/cm³)  =   1.01275
                               Volume (L)  =   1.04787
                        Viscosity (mPa s)  =   0.98535
                        Activity of water  =   0.977
                 Ionic strength (mol/kgw)  =   8.134e-04
                       Mass of water (kg)  =   9.998e-01
                 Total alkalinity (eq/kg)  =   1.216e-09
                       Total CO2 (mol/kg)  =   1.396e+00
                         Temperature (°C)  =  25.00
                           Pressure (atm)  = 65.20
                  Electrical balance (eq)  =  -1.216e-09
 Percent error, 100*(Cat-|An|)/(Cat+|An|)  =  -0.00
                               Iterations  =  44
                                  Total H  = 1.109899e+02
                                  Total O  = 5.828669e+01

----------------------------Distribution of species----------------------------

                                               Log       Log       Log    mole V
   Species          Molality    Activity  Molality  Activity     Gamma   cm³/mol

   H+              8.134e-04   7.888e-04    -3.090    -3.103    -0.013      0.00
   OH-             1.371e-11   1.328e-11   -10.863   -10.877    -0.014     -3.87
   H2O             5.551e+01   9.768e-01     1.744    -0.010     0.000     18.02
C(-4)         0.000e+00
   CH4             0.000e+00   0.000e+00  -119.669  -119.669     0.000     35.54
C(4)          1.396e+00
   CO2             1.330e+00   1.331e+00     0.124     0.124     0.000     34.40
   (CO2)2          3.249e-02   3.250e-02    -1.488    -1.488     0.000     68.81
   HCO3-           8.134e-04   7.880e-04    -3.090    -3.103    -0.014     24.79
   CO3-2           5.728e-11   5.044e-11   -10.242   -10.297    -0.055     -3.34
H(0)          1.197e-39
   H2              5.985e-40   5.986e-40   -39.223   -39.223     0.000     28.58
O(0)          2.019e-14
   O2              1.010e-14   1.010e-14   -13.996   -13.996     0.000     30.31

------------------------------Saturation indices-------------------------------

  Phase               SI** log IAP   log K(298 K,  65 atm)

  CH4(g)         -116.83   -119.67   -2.84  CH4
  CO2(g)            1.63      0.12   -1.51  CO2	 Pressure  65.1 atm, phi 0.657
  H2(g)           -36.09    -39.22   -3.13  H2
  H2O(g)           -1.49     -0.01    1.48  H2O	 Pressure   0.1 atm, phi 0.334
  O2(g)           -11.07    -14.00   -2.93  O2

**For a gas, SI = log10(fugacity). Fugacity = pressure * phi / 1 atm.
  For ideal gases, phi = 1.

Reaction step 11.

Using solution 1.	
Using gas phase 1.	
Using reaction 1.	

Reaction 1.	

	  1.000e+00 moles of the following reaction have been added:

	                 Relative
	Reactant            moles

	CO2                  1.00000

	                 Relative
	Element             moles
	C                    1.00000
	O                    2.00000

-----------------------------------Gas phase-----------------------------------

Total pressure: 65.19      atmospheres          (Peng-Robinson calculation)
    Gas volume:   1.00e+00 liters
  Molar volume:   1.16e-01 liters/mole
   P * Vm / RT:  0.30913  (Compressibility Factor Z) 

                                                        Moles in gas
                                            ----------------------------------
Component         log P           P    phi     Initial       Final       Delta

CO2(g)             1.81   6.508e+01  0.657   7.604e+00   8.605e+00   1.001e+00
H2O(g)            -0.98   1.051e-01  0.306   1.127e-02   1.389e-02   2.628e-03

-----------------------------Solution composition------------------------------

	Elements           Molality       Moles

	C                 1.396e+00   1.395e+00

----------------------------Description of solution----------------------------

                                       pH  =   3.103      Charge balance
                                       pe  =  14.892      Adjusted to redox equilibrium
      Specific Conductance (µS/cm,  25°C)  = 283
                          Density (g/cm³)  =   1.01275
                               Volume (L)  =   1.04780
                        Viscosity (mPa s)  =   0.98532
                        Activity of water  =   0.977
                 Ionic strength (mol/kgw)  =   8.133e-04
                       Mass of water (kg)  =   9.997e-01
                 Total alkalinity (eq/kg)  =   1.216e-09
                       Total CO2 (mol/kg)  =   1.396e+00
                         Temperature (°C)  =  25.00
                           Pressure (atm)  = 65.19
                  Electrical balance (eq)  =  -1.216e-09
 Percent error, 100*(Cat-|An|)/(Cat+|An|)  =  -0.00
                               Iterations  =  43
                                  Total H  = 1.109846e+02
                                  Total O  = 5.828280e+01

----------------------------Distribution of species----------------------------

                                               Log       Log       Log    mole V
   Species          Molality    Activity  Molality  Activity     Gamma   cm³/mol

   H+              8.133e-04   7.886e-04    -3.090    -3.103    -0.013      0.00
   OH-             1.371e-11   1.328e-11   -10.863   -10.877    -0.014     -3.87
   H2O             5.551e+01   9.768e-01     1.744    -0.010     0.000     18.02
C(-4)         0.000e+00
   CH4             0.000e+00   0.000e+00  -119.469  -119.469     0.000     35.54
C(4)          1.396e+00
   CO2             1.330e+00   1.330e+00     0.124     0.124     0.000     34.40
   (CO2)2          3.246e-02   3.247e-02    -1.489    -1.489     0.000     68.81
   HCO3-           8.133e-04   7.878e-04    -3.090    -3.104    -0.014     24.79
   CO3-2           5.728e-11   5.044e-11   -10.242   -10.297    -0.055     -3.34
H(0)          1.343e-39
   H2              6.715e-40   6.716e-40   -39.173   -39.173     0.000     28.58
O(0)          1.604e-14
   O2              8.019e-15   8.021e-15   -14.096   -14.096     0.000     30.31

------------------------------Saturation indices-------------------------------

  Phase               SI** log IAP   log K(298 K,  65 atm)

  CH4(g)         -116.63   -119.47   -2.84  CH4
  CO2(g)            1.63      0.12   -1.51  CO2	 Pressure  65.1 atm, phi 0.657
  H2(g)           -36.04    -39.17   -3.13  H2
  H2O(g)           -1.49     -0.01    1.48  H2O	 Pressure   0.1 atm, phi 0.306
  O2(g)           -11.17    -14.10   -2.93  O2

**For a gas, SI = log10(fugacity). Fugacity = pressure * phi / 1 atm.
  For ideal gases, phi = 1.

Reaction step 12.

Using solution 1.	
Using gas phase 1.	
Using reaction 1.	

Reaction 1.	

	  1.000e+00 moles of the following reaction have been added:

	                 Relative
	Reactant            moles

	CO2                  1.00000

	                 Relative
	Element             moles
	C                    1.00000
	O                    2.00000

-----------------------------------Gas phase-----------------------------------

Total pressure: 65.17      atmospheres          (Peng-Robinson calculation)
    Gas volume:   1.00e+00 liters
  Molar volume:   1.04e-01 liters/mole
   P * Vm / RT:  0.27680  (Compressibility Factor Z) 

                                                        Moles in gas
                                            ----------------------------------
Component         log P           P    phi     Initial       Final       Delta

CO2(g)             1.81   6.506e+01  0.657   8.605e+00   9.606e+00   1.001e+00
H2O(g)            -0.94   1.145e-01  0.281   1.389e-02   1.691e-02   3.018e-03

-----------------------------Solution composition------------------------------

	Elements           Molality       Moles

	C                 1.394e+00   1.394e+00

----------------------------Description of solution----------------------------

                                       pH  =   3.103      Charge balance
                                       pe  =  14.826      Adjusted to redox equilibrium
      Specific Conductance (µS/cm,  25°C)  = 283
                          Density (g/cm³)  =   1.01273
                               Volume (L)  =   1.04770
                        Viscosity (mPa s)  =   0.98522
                        Activity of water  =   0.977
                 Ionic strength (mol/kgw)  =   8.129e-04
                       Mass of water (kg)  =   9.997e-01
                 Total alkalinity (eq/kg)  =   1.216e-09
                       Total CO2 (mol/kg)  =   1.394e+00
                         Temperature (°C)  =  25.00
                           Pressure (atm)  = 65.17
                  Electrical balance (eq)  =  -1.216e-09
 Percent error, 100*(Cat-|An|)/(Cat+|An|)  =  -0.00
                               Iterations  =  46
                                  Total H  = 1.109786e+02
                                  Total O  = 5.827687e+01

----------------------------Distribution of species----------------------------

                                               Log       Log       Log    mole V
   Species          Molality    Activity  Molality  Activity     Gamma   cm³/mol

   H+              8.129e-04   7.882e-04    -3.090    -3.103    -0.013      0.00
   OH-             1.372e-11   1.328e-11   -10.863   -10.877    -0.014     -3.87
   H2O             5.551e+01   9.768e-01     1.744    -0.010     0.000     18.02
C(-4)         0.000e+00
   CH4             0.000e+00   0.000e+00  -118.942  -118.941     0.000     35.54
C(4)          1.394e+00
   CO2             1.329e+00   1.329e+00     0.123     0.123     0.000     34.40
   (CO2)2          3.240e-02   3.241e-02    -1.489    -1.489     0.000     68.81
   HCO3-           8.129e-04   7.875e-04    -3.090    -3.104    -0.014     24.79
   CO3-2           5.727e-11   5.044e-11   -10.242   -10.297    -0.055     -3.34
H(0)          1.820e-39
   H2              9.101e-40   9.102e-40   -39.041   -39.041     0.000     28.58
O(0)          8.733e-15
   O2              4.366e-15   4.367e-15   -14.360   -14.360     0.000     30.31

------------------------------Saturation indices-------------------------------

  Phase               SI** log IAP   log K(298 K,  65 atm)

  CH4(g)         -116.10   -118.94   -2.84  CH4
  CO2(g)            1.63      0.12   -1.51  CO2	 Pressure  65.1 atm, phi 0.657
  H2(g)           -35.91    -39.04   -3.13  H2
  H2O(g)           -1.49     -0.01    1.48  H2O	 Pressure   0.1 atm, phi 0.281
  O2(g)           -11.43    -14.36   -2.93  O2

**For a gas, SI = log10(fugacity). Fugacity = pressure * phi / 1 atm.
  For ideal gases, phi = 1.

Reaction step 13.

Using solution 1.	
Using gas phase 1.	
Using reaction 1.	

Reaction 1.	

	  1.000e+00 moles of the following reaction have been added:

	                 Relative
	Reactant            moles

	CO2                  1.00000

	                 Relative
	Element             moles
	C                    1.00000
	O                    2.00000

-----------------------------------Gas phase-----------------------------------

Total pressure: 65.15      atmospheres          (Peng-Robinson calculation)
    Gas volume:   1.00e+00 liters
  Molar volume:   9.41e-02 liters/mole
   P * Vm / RT:  0.25055  (Compressibility Factor Z) 

                                                        Moles in gas
                                            ----------------------------------
Component         log P           P    phi     Initial       Final       Delta

CO2(g)             1.81   6.503e+01  0.656   9.606e+00   1.061e+01   1.002e+00
H2O(g)            -0.90   1.248e-01  0.258   1.691e-02   2.036e-02   3.449e-03

-----------------------------Solution composition------------------------------

	Elements           Molality       Moles

	C                 1.392e+00   1.392e+00

----------------------------Description of solution----------------------------

                                       pH  =   3.104      Charge balance
                                       pe  =   2.525      Adjusted to redox equilibrium
      Specific Conductance (µS/cm,  25°C)  = 283
                          Density (g/cm³)  =   1.01271
                               Volume (L)  =   1.04756
                        Viscosity (mPa s)  =   0.98509
                        Activity of water  =   0.977
                 Ionic strength (mol/kgw)  =   8.123e-04
                       Mass of water (kg)  =   9.996e-01
                 Total alkalinity (eq/kg)  =   1.217e-09
                       Total CO2 (mol/kg)  =   1.392e+00
                         Temperature (°C)  =  25.00
                           Pressure (atm)  = 65.15
                  Electrical balance (eq)  =  -1.216e-09
 Percent error, 100*(Cat-|An|)/(Cat+|An|)  =  -0.00
                               Iterations  =  65
                                  Total H  = 1.109717e+02
                                  Total O  = 5.826914e+01

----------------------------Distribution of species----------------------------

                                               Log       Log       Log    mole V
   Species          Molality    Activity  Molality  Activity     Gamma   cm³/mol

   H+              8.123e-04   7.877e-04    -3.090    -3.104    -0.013      0.00
   OH-             1.373e-11   1.329e-11   -10.862   -10.876    -0.014     -3.87
   H2O             5.551e+01   9.769e-01     1.744    -0.010     0.000     18.02
C(-4)         2.885e-21
   CH4             2.885e-21   2.886e-21   -20.540   -20.540     0.000     35.54
C(4)          1.392e+00
   CO2             1.327e+00   1.327e+00     0.123     0.123     0.000     34.40
   (CO2)2          3.231e-02   3.232e-02    -1.491    -1.491     0.000     68.81
   HCO3-           8.123e-04   7.869e-04    -3.090    -3.104    -0.014     24.79
   CO3-2           5.727e-11   5.044e-11   -10.242   -10.297    -0.055     -3.34
H(0)          7.256e-15
   H2              3.628e-15   3.629e-15   -14.440   -14.440     0.000     28.58
O(0)          0.000e+00
   O2              0.000e+00   0.000e+00   -63.561   -63.561     0.000     30.31

------------------------------Saturation indices-------------------------------

  Phase               SI** log IAP   log K(298 K,  65 atm)

  CH4(g)          -17.70    -20.54   -2.84  CH4
  CO2(g)            1.63      0.12   -1.51  CO2	 Pressure  65.0 atm, phi 0.656
  H2(g)           -11.31    -14.44   -3.13  H2
  H2O(g)           -1.49     -0.01    1.48  H2O	 Pressure   0.1 atm, phi 0.258
  O2(g)           -60.63    -63.56   -2.93  O2

**For a gas, SI = log10(fugacity). Fugacity = pressure * phi / 1 atm.
  For ideal gases, phi = 1.

Reaction step 14.

Using solution 1.	
Using gas phase 1.	
Using reaction 1.	

Reaction 1.	

	  1.000e+00 moles of the following reaction have been added:

	                 Relative
	Reactant            moles

	CO2                  1.00000

	                 Relative
	Element             moles
	C                    1.00000
	O                    2.00000

-----------------------------------Gas phase-----------------------------------

Total pressure: 65.14      atmospheres          (Peng-Robinson calculation)
    Gas volume:   1.00e+00 liters
  Molar volume:   8.59e-02 liters/mole
   P * Vm / RT:  0.22881  (Compressibility Factor Z) 

                                                        Moles in gas
                                            ----------------------------------
Component         log P           P    phi     Initial       Final       Delta

CO2(g)             1.81   6.500e+01  0.655   1.061e+01   1.161e+01   1.002e+00
H2O(g)            -0.87   1.359e-01  0.237   2.036e-02   2.428e-02   3.919e-03

-----------------------------Solution composition------------------------------

	Elements           Molality       Moles

	C                 1.390e+00   1.389e+00

----------------------------Description of solution----------------------------

                                       pH  =   3.104      Charge balance
                                       pe  =  14.801      Adjusted to redox equilibrium
      Specific Conductance (µS/cm,  25°C)  = 283
                          Density (g/cm³)  =   1.01269
                               Volume (L)  =   1.04741
                        Viscosity (mPa s)  =   0.98492
                        Activity of water  =   0.977
                 Ionic strength (mol/kgw)  =   8.116e-04
                       Mass of water (kg)  =   9.995e-01
                 Total alkalinity (eq/kg)  =   1.217e-09
                       Total CO2 (mol/kg)  =   1.390e+00
                         Temperature (°C)  =  25.00
                           Pressure (atm)  = 65.14
                  Electrical balance (eq)  =  -1.216e-09
 Percent error, 100*(Cat-|An|)/(Cat+|An|)  =  -0.00
                               Iterations  =  55
                                  Total H  = 1.109639e+02
                                  Total O  = 5.826024e+01

----------------------------Distribution of species----------------------------

                                               Log       Log       Log    mole V
   Species          Molality    Activity  Molality  Activity     Gamma   cm³/mol

   H+              8.116e-04   7.870e-04    -3.091    -3.104    -0.013      0.00
   OH-             1.374e-11   1.331e-11   -10.862   -10.876    -0.014     -3.87
   H2O             5.551e+01   9.769e-01     1.744    -0.010     0.000     18.02
C(-4)         0.000e+00
   CH4             0.000e+00   0.000e+00  -118.750  -118.750     0.000     35.54
C(4)          1.390e+00
   CO2             1.325e+00   1.325e+00     0.122     0.122     0.000     34.40
   (CO2)2          3.221e-02   3.221e-02    -1.492    -1.492     0.000     68.81
   HCO3-           8.116e-04   7.863e-04    -3.091    -3.104    -0.014     24.79
   CO3-2           5.727e-11   5.044e-11   -10.242   -10.297    -0.055     -3.34
H(0)          2.034e-39
   H2              1.017e-39   1.017e-39   -38.993   -38.993     0.000     28.58
O(0)          6.992e-15
   O2              3.496e-15   3.497e-15   -14.456   -14.456     0.000     30.31

------------------------------Saturation indices-------------------------------

  Phase               SI** log IAP   log K(298 K,  65 atm)

  CH4(g)         -115.91   -118.75   -2.84  CH4
  CO2(g)            1.63      0.12   -1.51  CO2	 Pressure  65.0 atm, phi 0.655
  H2(g)           -35.86    -38.99   -3.13  H2
  H2O(g)           -1.49     -0.01    1.48  H2O	 Pressure   0.1 atm, phi 0.237
  O2(g)           -11.53    -14.46   -2.93  O2

**For a gas, SI = log10(fugacity). Fugacity = pressure * phi / 1 atm.
  For ideal gases, phi = 1.

Reaction step 15.

Using solution 1.	
Using gas phase 1.	
Using reaction 1.	

Reaction 1.	

	  1.000e+00 moles of the following reaction have been added:

	                 Relative
	Reactant            moles

	CO2                  1.00000

	                 Relative
	Element             moles
	C                    1.00000
	O                    2.00000

-----------------------------------Gas phase-----------------------------------

Total pressure: 65.12      atmospheres          (Peng-Robinson calculation)
    Gas volume:   1.00e+00 liters
  Molar volume:   7.91e-02 liters/mole
   P * Vm / RT:  0.21053  (Compressibility Factor Z) 

                                                        Moles in gas
                                            ----------------------------------
Component         log P           P    phi     Initial       Final       Delta

CO2(g)             1.81   6.497e+01  0.655   1.161e+01   1.261e+01   1.002e+00
H2O(g)            -0.83   1.479e-01  0.218   2.428e-02   2.871e-02   4.427e-03

-----------------------------Solution composition------------------------------

	Elements           Molality       Moles

	C                 1.387e+00   1.387e+00

----------------------------Description of solution----------------------------

                                       pH  =   3.104      Charge balance
                                       pe  =  14.700      Adjusted to redox equilibrium
      Specific Conductance (µS/cm,  25°C)  = 283
                          Density (g/cm³)  =   1.01267
                               Volume (L)  =   1.04724
                        Viscosity (mPa s)  =   0.98477
                        Activity of water  =   0.977
                 Ionic strength (mol/kgw)  =   8.110e-04
                       Mass of water (kg)  =   9.995e-01
                 Total alkalinity (eq/kg)  =   1.217e-09
                       Total CO2 (mol/kg)  =   1.387e+00
                         Temperature (°C)  =  25.00
                           Pressure (atm)  = 65.12
                  Electrical balance (eq)  =  -1.216e-09
 Percent error, 100*(Cat-|An|)/(Cat+|An|)  =  -0.00
                               Iterations  =  48
                                  Total H  = 1.109550e+02
                                  Total O  = 5.825096e+01

----------------------------Distribution of species----------------------------

                                               Log       Log       Log    mole V
   Species          Molality    Activity  Molality  Activity     Gamma   cm³/mol

   H+              8.110e-04   7.864e-04    -3.091    -3.104    -0.013      0.00
   OH-             1.375e-11   1.332e-11   -10.862   -10.876    -0.014     -3.87
   H2O             5.551e+01   9.769e-01     1.744    -0.010     0.000     18.02
C(-4)         0.000e+00
   CH4             0.000e+00   0.000e+00  -117.944  -117.943     0.000     35.54
C(4)          1.387e+00
   CO2             1.322e+00   1.323e+00     0.121     0.121     0.000     34.40
   (CO2)2          3.210e-02   3.211e-02    -1.493    -1.493     0.000     68.81
   HCO3-           8.110e-04   7.856e-04    -3.091    -3.105    -0.014     24.79
   CO3-2           5.726e-11   5.044e-11   -10.242   -10.297    -0.055     -3.34
H(0)          3.237e-39
   H2              1.618e-39   1.619e-39   -38.791   -38.791     0.000     28.58
O(0)          2.762e-15
   O2              1.381e-15   1.381e-15   -14.860   -14.860     0.000     30.31

------------------------------Saturation indices-------------------------------

  Phase               SI** log IAP   log K(298 K,  65 atm)

  CH4(g)         -115.10   -117.94   -2.84  CH4
  CO2(g)            1.63      0.12   -1.51  CO2	 Pressure  65.0 atm, phi 0.655
  H2(g)           -35.66    -38.79   -3.13  H2
  H2O(g)           -1.49     -0.01    1.48  H2O	 Pressure   0.1 atm, phi 0.218
  O2(g)           -11.93    -14.86   -2.93  O2

**For a gas, SI = log10(fugacity). Fugacity = pressure * phi / 1 atm.
  For ideal gases, phi = 1.

Reaction step 16.

Using solution 1.	
Using gas phase 1.	
Using reaction 1.	

Reaction 1.	

	  1.000e+00 moles of the following reaction have been added:

	                 Relative
	Reactant            moles

	CO2                  1.00000

	                 Relative
	Element             moles
	C                    1.00000
	O                    2.00000

-----------------------------------Gas phase-----------------------------------

Total pressure: 65.10      atmospheres          (Peng-Robinson calculation)
    Gas volume:   1.00e+00 liters
  Molar volume:   7.33e-02 liters/mole
   P * Vm / RT:  0.19494  (Compressibility Factor Z) 

                                                        Moles in gas
                                            ----------------------------------
Component         log P           P    phi     Initial       Final       Delta

CO2(g)             1.81   6.494e+01  0.654   1.261e+01   1.362e+01   1.002e+00
H2O(g)            -0.79   1.606e-01  0.200   2.871e-02   3.368e-02   4.970e-03

-----------------------------Solution composition------------------------------

	Elements           Molality       Moles

	C                 1.386e+00   1.385e+00

----------------------------Description of solution----------------------------

                                       pH  =   3.105      Charge balance
                                       pe  =  14.862      Adjusted to redox equilibrium
      Specific Conductance (µS/cm,  25°C)  = 283
                          Density (g/cm³)  =   1.01265
                               Volume (L)  =   1.04709
                        Viscosity (mPa s)  =   0.98465
                        Activity of water  =   0.977
                 Ionic strength (mol/kgw)  =   8.105e-04
                       Mass of water (kg)  =   9.994e-01
                 Total alkalinity (eq/kg)  =   1.217e-09
                       Total CO2 (mol/kg)  =   1.386e+00
                         Temperature (°C)  =  25.00
                           Pressure (atm)  = 65.10
                  Electrical balance (eq)  =  -1.216e-09
 Percent error, 100*(Cat-|An|)/(Cat+|An|)  =  -0.00
                               Iterations  =  46
                                  Total H  = 1.109451e+02
                                  Total O  = 5.824211e+01

----------------------------Distribution of species----------------------------

                                               Log       Log       Log    mole V
   Species          Molality    Activity  Molality  Activity     Gamma   cm³/mol

   H+              8.105e-04   7.859e-04    -3.091    -3.105    -0.013      0.00
   OH-             1.376e-11   1.332e-11   -10.861   -10.875    -0.014     -3.87
   H2O             5.551e+01   9.770e-01     1.744    -0.010     0.000     18.02
C(-4)         0.000e+00
   CH4             0.000e+00   0.000e+00  -119.248  -119.248     0.000     35.54
C(4)          1.386e+00
   CO2             1.321e+00   1.321e+00     0.121     0.121     0.000     34.40
   (CO2)2          3.202e-02   3.203e-02    -1.495    -1.494     0.000     68.81
   HCO3-           8.105e-04   7.852e-04    -3.091    -3.105    -0.014     24.79
   CO3-2           5.726e-11   5.043e-11   -10.242   -10.297    -0.055     -3.35
H(0)          1.528e-39
   H2              7.642e-40   7.643e-40   -39.117   -39.117     0.000     28.58
O(0)          1.239e-14
   O2              6.195e-15   6.196e-15   -14.208   -14.208     0.000     30.31

------------------------------Saturation indices-------------------------------

  Phase               SI** log IAP   log K(298 K,  65 atm)

  CH4(g)         -116.41   -119.25   -2.84  CH4
  CO2(g)            1.63      0.12   -1.51  CO2	 Pressure  64.9 atm, phi 0.654
  H2(g)           -35.98    -39.12   -3.13  H2
  H2O(g)           -1.49     -0.01    1.48  H2O	 Pressure   0.2 atm, phi 0.200
  O2(g)           -11.28    -14.21   -2.93  O2

**For a gas, SI = log10(fugacity). Fugacity = pressure * phi / 1 atm.
  For ideal gases, phi = 1.

Reaction step 17.

Using solution 1.	
Using gas phase 1.	
Using reaction 1.	

Reaction 1.	

	  1.000e+00 moles of the following reaction have been added:

	                 Relative
	Reactant            moles

	CO2                  1.00000

	                 Relative
	Element             moles
	C                    1.00000
	O                    2.00000

-----------------------------------Gas phase-----------------------------------

Total pressure: 65.07      atmospheres          (Peng-Robinson calculation)
    Gas volume:   1.00e+00 liters
  Molar volume:   6.82e-02 liters/mole
   P * Vm / RT:  0.18149  (Compressibility Factor Z) 

                                                        Moles in gas
                                            ----------------------------------
Component         log P           P    phi     Initial       Final       Delta

CO2(g)             1.81   6.490e+01  0.654   1.362e+01   1.462e+01   1.001e+00
H2O(g)            -0.76   1.742e-01  0.185   3.368e-02   3.922e-02   5.546e-03

-----------------------------Solution composition------------------------------

	Elements           Molality       Moles

	C                 1.385e+00   1.384e+00

----------------------------Description of solution----------------------------

                                       pH  =   3.105      Charge balance
                                       pe  =  14.903      Adjusted to redox equilibrium
      Specific Conductance (µS/cm,  25°C)  = 282
                          Density (g/cm³)  =   1.01265
                               Volume (L)  =   1.04696
                        Viscosity (mPa s)  =   0.98459
                        Activity of water  =   0.977
                 Ionic strength (mol/kgw)  =   8.102e-04
                       Mass of water (kg)  =   9.993e-01
                 Total alkalinity (eq/kg)  =   1.217e-09
                       Total CO2 (mol/kg)  =   1.385e+00
                         Temperature (°C)  =  25.00
                           Pressure (atm)  = 65.07
                  Electrical balance (eq)  =  -1.216e-09
 Percent error, 100*(Cat-|An|)/(Cat+|An|)  =  -0.00
                               Iterations  =  32
                                  Total H  = 1.109340e+02
                                  Total O  = 5.823451e+01

----------------------------Distribution of species----------------------------

                                               Log       Log       Log    mole V
   Species          Molality    Activity  Molality  Activity     Gamma   cm³/mol

   H+              8.102e-04   7.857e-04    -3.091    -3.105    -0.013      0.00
   OH-             1.377e-11   1.333e-11   -10.861   -10.875    -0.014     -3.87
   H2O             5.551e+01   9.770e-01     1.744    -0.010     0.000     18.02
C(-4)         0.000e+00
   CH4             0.000e+00   0.000e+00  -119.576  -119.576     0.000     35.54
C(4)          1.385e+00
   CO2             1.320e+00   1.320e+00     0.121     0.121     0.000     34.40
   (CO2)2          3.198e-02   3.199e-02    -1.495    -1.495     0.000     68.81
   HCO3-           8.102e-04   7.849e-04    -3.091    -3.105    -0.014     24.79
   CO3-2           5.726e-11   5.043e-11   -10.242   -10.297    -0.055     -3.35
H(0)          1.266e-39
   H2              6.328e-40   6.330e-40   -39.199   -39.199     0.000     28.58
O(0)          1.807e-14
   O2              9.035e-15   9.036e-15   -14.044   -14.044     0.000     30.31

------------------------------Saturation indices-------------------------------

  Phase               SI** log IAP   log K(298 K,  65 atm)

  CH4(g)         -116.73   -119.58   -2.84  CH4
  CO2(g)            1.63      0.12   -1.51  CO2	 Pressure  64.9 atm, phi 0.654
  H2(g)           -36.07    -39.20   -3.13  H2
  H2O(g)           -1.49     -0.01    1.48  H2O	 Pressure   0.2 atm, phi 0.185
  O2(g)           -11.12    -14.04   -2.93  O2

**For a gas, SI = log10(fugacity). Fugacity = pressure * phi / 1 atm.
  For ideal gases, phi = 1.

Reaction step 18.

Using solution 1.	
Using gas phase 1.	
Using reaction 1.	

Reaction 1.	

	  1.000e+00 moles of the following reaction have been added:

	                 Relative
	Reactant            moles

	CO2                  1.00000

	                 Relative
	Element             moles
	C                    1.00000
	O                    2.00000

-----------------------------------Gas phase-----------------------------------

Total pressure: 70.42      atmospheres          (Peng-Robinson calculation)
    Gas volume:   1.00e+00 liters
  Molar volume:   6.39e-02 liters/mole
   P * Vm / RT:  0.18390  (Compressibility Factor Z) 

                                                        Moles in gas
                                            ----------------------------------
Component         log P           P    phi     Initial       Final       Delta

CO2(g)             1.85   7.022e+01  0.613   1.462e+01   1.561e+01   9.902e-01
H2O(g)            -0.69   2.026e-01  0.159   3.922e-02   4.502e-02   5.801e-03

-----------------------------Solution composition------------------------------

	Elements           Molality       Moles

	C                 1.395e+00   1.394e+00

----------------------------Description of solution----------------------------

                                       pH  =   3.102      Charge balance
                                       pe  =  14.914      Adjusted to redox equilibrium
      Specific Conductance (µS/cm,  25°C)  = 284
                          Density (g/cm³)  =   1.01297
                               Volume (L)  =   1.04694
                        Viscosity (mPa s)  =   0.98520
                        Activity of water  =   0.977
                 Ionic strength (mol/kgw)  =   8.154e-04
                       Mass of water (kg)  =   9.992e-01
                 Total alkalinity (eq/kg)  =   1.217e-09
                       Total CO2 (mol/kg)  =   1.395e+00
                         Temperature (°C)  =  25.00
                           Pressure (atm)  = 70.42
                  Electrical balance (eq)  =  -1.216e-09
 Percent error, 100*(Cat-|An|)/(Cat+|An|)  =  -0.00
                               Iterations  =  38
                                  Total H  = 1.109224e+02
                                  Total O  = 5.824824e+01

----------------------------Distribution of species----------------------------

                                               Log       Log       Log    mole V
   Species          Molality    Activity  Molality  Activity     Gamma   cm³/mol

   H+              8.154e-04   7.907e-04    -3.089    -3.102    -0.013      0.00
   OH-             1.374e-11   1.331e-11   -10.862   -10.876    -0.014     -3.86
   H2O             5.551e+01   9.768e-01     1.744    -0.010     0.000     18.01
C(-4)         0.000e+00
   CH4             0.000e+00   0.000e+00  -119.639  -119.639     0.000     35.55
C(4)          1.395e+00
   CO2             1.329e+00   1.329e+00     0.124     0.124     0.000     34.40
   (CO2)2          3.242e-02   3.243e-02    -1.489    -1.489     0.000     68.80
   HCO3-           8.154e-04   7.899e-04    -3.089    -3.102    -0.014     24.81
   CO3-2           5.762e-11   5.074e-11   -10.239   -10.295    -0.055     -3.30
H(0)          1.213e-39
   H2              6.066e-40   6.067e-40   -39.217   -39.217     0.000     28.57
O(0)          1.944e-14
   O2              9.721e-15   9.723e-15   -14.012   -14.012     0.000     30.30

------------------------------Saturation indices-------------------------------

  Phase               SI** log IAP   log K(298 K,  70 atm)

  CH4(g)         -116.79   -119.64   -2.85  CH4
  CO2(g)            1.63      0.12   -1.51  CO2	 Pressure  70.2 atm, phi 0.613
  H2(g)           -36.08    -39.22   -3.14  H2
  H2O(g)           -1.49     -0.01    1.48  H2O	 Pressure   0.2 atm, phi 0.159
  O2(g)           -11.08    -14.01   -2.93  O2

**For a gas, SI = log10(fugacity). Fugacity = pressure * phi / 1 atm.
  For ideal gases, phi = 1.

Reaction step 19.

Using solution 1.	
Using gas phase 1.	
Using reaction 1.	

Reaction 1.	

	  1.000e+00 moles of the following reaction have been added:

	                 Relative
	Reactant            moles

	CO2                  1.00000

	                 Relative
	Element             moles
	C                    1.00000
	O                    2.00000

-----------------------------------Gas phase-----------------------------------

Total pressure: 80.18      atmospheres          (Peng-Robinson calculation)
    Gas volume:   1.00e+00 liters
  Molar volume:   6.01e-02 liters/mole
   P * Vm / RT:  0.19694  (Compressibility Factor Z) 

                                                        Moles in gas
                                            ----------------------------------
Component         log P           P    phi     Initial       Final       Delta

CO2(g)             1.90   7.994e+01  0.552   1.561e+01   1.659e+01   9.840e-01
H2O(g)            -0.61   2.464e-01  0.132   4.502e-02   5.114e-02   6.118e-03

-----------------------------Solution composition------------------------------

	Elements           Molality       Moles

	C                 1.411e+00   1.410e+00

----------------------------Description of solution----------------------------

                                       pH  =   3.097      Charge balance
                                       pe  =  14.952      Adjusted to redox equilibrium
      Specific Conductance (µS/cm,  25°C)  = 287
                          Density (g/cm³)  =   1.01354
                               Volume (L)  =   1.04694
                        Viscosity (mPa s)  =   0.98618
                        Activity of water  =   0.977
                 Ionic strength (mol/kgw)  =   8.244e-04
                       Mass of water (kg)  =   9.991e-01
                 Total alkalinity (eq/kg)  =   1.217e-09
                       Total CO2 (mol/kg)  =   1.411e+00
                         Temperature (°C)  =  25.00
                           Pressure (atm)  = 80.18
                  Electrical balance (eq)  =  -1.216e-09
 Percent error, 100*(Cat-|An|)/(Cat+|An|)  =  -0.00
                               Iterations  =  44
                                  Total H  = 1.109101e+02
                                  Total O  = 5.827411e+01

----------------------------Distribution of species----------------------------

                                               Log       Log       Log    mole V
   Species          Molality    Activity  Molality  Activity     Gamma   cm³/mol

   H+              8.244e-04   7.993e-04    -3.084    -3.097    -0.013      0.00
   OH-             1.371e-11   1.327e-11   -10.863   -10.877    -0.014     -3.82
   H2O             5.551e+01   9.766e-01     1.744    -0.010     0.000     18.01
C(-4)         0.000e+00
   CH4             0.000e+00   0.000e+00  -119.907  -119.907     0.000     35.56
C(4)          1.411e+00
   CO2             1.344e+00   1.344e+00     0.128     0.128     0.000     34.40
   (CO2)2          3.314e-02   3.315e-02    -1.480    -1.480     0.000     68.79
   HCO3-           8.244e-04   7.985e-04    -3.084    -3.098    -0.014     24.84
   CO3-2           5.830e-11   5.130e-11   -10.234   -10.290    -0.056     -3.21
H(0)          1.029e-39
   H2              5.143e-40   5.144e-40   -39.289   -39.289     0.000     28.57
O(0)          2.648e-14
   O2              1.324e-14   1.324e-14   -13.878   -13.878     0.000     30.29

------------------------------Saturation indices-------------------------------

  Phase               SI** log IAP   log K(298 K,  80 atm)

  CH4(g)         -117.06   -119.91   -2.85  CH4
  CO2(g)            1.64      0.13   -1.52  CO2	 Pressure  79.9 atm, phi 0.552
  H2(g)           -36.15    -39.29   -3.14  H2
  H2O(g)           -1.49     -0.01    1.48  H2O	 Pressure   0.2 atm, phi 0.132
  O2(g)           -10.94    -13.88   -2.93  O2

**For a gas, SI = log10(fugacity). Fugacity = pressure * phi / 1 atm.
  For ideal gases, phi = 1.

Reaction step 20.

Using solution 1.	
Using gas phase 1.	
Using reaction 1.	

Reaction 1.	

	  1.000e+00 moles of the following reaction have been added:

	                 Relative
	Reactant            moles

	CO2                  1.00000

	                 Relative
	Element             moles
	C                    1.00000
	O                    2.00000

-----------------------------------Gas phase-----------------------------------

Total pressure: 94.41      atmospheres          (Peng-Robinson calculation)
    Gas volume:   1.00e+00 liters
  Molar volume:   5.67e-02 liters/mole
[...]

-----------------------------------Gas phase-----------------------------------

Total pressure: 840.34      atmospheres          (Peng-Robinson calculation)
    Gas volume:   1.00e+00 liters
  Molar volume:   4.82e-02 liters/mole
   P * Vm / RT:  1.16578  (Compressibility Factor Z) 

                                                        Moles in gas
                                            ----------------------------------
Component         log P           P    phi     Initial       Final       Delta

CO2(g)             2.90   7.960e+02  0.644   1.877e+01   1.966e+01   8.938e-01
H2O(g)             1.65   4.437e+01  0.156   1.068e+00   1.096e+00   2.810e-02

-----------------------------Solution composition------------------------------

	Elements           Molality       Moles

	C                 2.384e+00   2.337e+00

----------------------------Description of solution----------------------------

                                       pH  =   3.101      Charge balance
                                       pe  =   8.783      Adjusted to redox equilibrium
      Specific Conductance (µS/cm, 150°C)  = 562
                          Density (g/cm³)  =   0.96981
                               Volume (L)  =   1.11681
                        Viscosity (mPa s)  =   0.20874
                        Activity of water  =   0.966
                 Ionic strength (mol/kgw)  =   8.249e-04
                       Mass of water (kg)  =   9.802e-01
                 Total alkalinity (eq/kg)  =   1.227e-09
                       Total CO2 (mol/kg)  =   2.384e+00
                         Temperature (°C)  = 150.00
                           Pressure (atm)  = 840.34
                  Electrical balance (eq)  =  -1.203e-09
 Percent error, 100*(Cat-|An|)/(Cat+|An|)  =  -0.00
                               Iterations  =  32 (133 overall)
                                  Total H  = 1.088202e+02
                                  Total O  = 5.908349e+01

----------------------------Distribution of species----------------------------

                                               Log       Log       Log    mole V
   Species          Molality    Activity  Molality  Activity     Gamma   cm³/mol

   H+              8.249e-04   7.934e-04    -3.084    -3.101    -0.017      0.00
   OH-             6.539e-09   6.276e-09    -8.184    -8.202    -0.018    -13.58
   H2O             5.551e+01   9.658e-01     1.744    -0.015     0.000     18.79
C(-4)         0.000e+00
   CH4             0.000e+00   0.000e+00   -84.552   -84.552     0.000     43.71
C(4)          2.384e+00
   CO2             1.635e+00   1.635e+00     0.213     0.214     0.000     40.37
   (CO2)2          3.741e-01   3.742e-01    -0.427    -0.427     0.000     80.73
   HCO3-           8.249e-04   7.923e-04    -3.084    -3.101    -0.017     23.97
   CO3-2           1.079e-10   9.186e-11    -9.967   -10.037    -0.070     -9.44
H(0)          5.098e-28
   H2              2.549e-28   2.550e-28   -27.594   -27.594     0.000     28.25
O(0)          1.171e-11
   O2              5.855e-12   5.857e-12   -11.232   -11.232     0.000     32.97

------------------------------Saturation indices-------------------------------

  Phase               SI** log IAP   log K(423 K, 840 atm)

  CH4(g)          -81.20    -84.55   -3.35  CH4
  CO2(g)            2.71      0.21   -2.50  CO2	 Pressure 796.0 atm, phi 0.644
  H2(g)           -24.32    -27.59   -3.28  H2
  H2O(g)            0.84     -0.02   -0.86  H2O	 Pressure  44.4 atm, phi 0.156
  O2(g)            -7.85    -11.23   -3.39  O2

**For a gas, SI = log10(fugacity). Fugacity = pressure * phi / 1 atm.
  For ideal gases, phi = 1.

Reaction step 24.

Using solution 1.	
Using gas phase 1.	
Using temperature 5.	
Using reaction 1.	

Reaction 1.	

	  1.000e+00 moles of the following reaction have been added:

	                 Relative
	Reactant            moles

	CO2                  1.00000

	                 Relative
	Element             moles
	C                    1.00000
	O                    2.00000

-----------------------------------Gas phase-----------------------------------

Total pressure: 945.69      atmospheres          (Peng-Robinson calculation)
    Gas volume:   1.00e+00 liters
  Molar volume:   4.62e-02 liters/mole
   P * Vm / RT:  1.25693  (Compressibility Factor Z) 

                                                        Moles in gas
                                            ----------------------------------
Component         log P           P    phi     Initial       Final       Delta

CO2(g)             2.95   8.970e+02  0.663   1.966e+01   2.055e+01   8.879e-01
H2O(g)             1.69   4.873e+01  0.150   1.096e+00   1.117e+00   2.047e-02

-----------------------------Solution composition------------------------------

	Elements           Molality       Moles

	C                 2.499e+00   2.449e+00

----------------------------Description of solution----------------------------

                                       pH  =   3.076      Charge balance
                                       pe  =   8.805      Adjusted to redox equilibrium
      Specific Conductance (µS/cm, 150°C)  = 589
                          Density (g/cm³)  =   0.97529
                               Volume (L)  =   1.11521
                        Viscosity (mPa s)  =   0.21160
                        Activity of water  =   0.964
                 Ionic strength (mol/kgw)  =   8.727e-04
                       Mass of water (kg)  =   9.799e-01
                 Total alkalinity (eq/kg)  =   1.228e-09
                       Total CO2 (mol/kg)  =   2.499e+00
                         Temperature (°C)  = 150.00
                           Pressure (atm)  = 945.69
                  Electrical balance (eq)  =  -1.203e-09
 Percent error, 100*(Cat-|An|)/(Cat+|An|)  =  -0.00
                               Iterations  =  37 (138 overall)
                                  Total H  = 1.087793e+02
                                  Total O  = 5.928720e+01

----------------------------Distribution of species----------------------------

                                               Log       Log       Log    mole V
   Species          Molality    Activity  Molality  Activity     Gamma   cm³/mol

   H+              8.727e-04   8.387e-04    -3.059    -3.076    -0.017      0.00
   OH-             6.834e-09   6.554e-09    -8.165    -8.183    -0.018    -13.75
   H2O             5.551e+01   9.643e-01     1.744    -0.016     0.000     18.70
C(-4)         0.000e+00
   CH4             0.000e+00   0.000e+00   -84.577   -84.577     0.000     43.43
C(4)          2.499e+00
   CO2             1.694e+00   1.695e+00     0.229     0.229     0.000     39.98
   (CO2)2          4.019e-01   4.020e-01    -0.396    -0.396     0.000     79.97
   HCO3-           8.727e-04   8.376e-04    -3.059    -3.077    -0.018     24.60
   CO3-2           1.174e-10   9.965e-11    -9.930   -10.002    -0.071     -8.08
H(0)          4.713e-28
   H2              2.357e-28   2.357e-28   -27.628   -27.628     0.000     28.22
O(0)          1.172e-11
   O2              5.859e-12   5.860e-12   -11.232   -11.232     0.000     32.70

------------------------------Saturation indices-------------------------------

  Phase               SI** log IAP   log K(423 K, 946 atm)

  CH4(g)          -81.17    -84.58   -3.41  CH4
  CO2(g)            2.77      0.23   -2.54  CO2	 Pressure 897.0 atm, phi 0.663
  H2(g)           -24.32    -27.63   -3.31  H2
  H2O(g)            0.86     -0.02   -0.88  H2O	 Pressure  48.7 atm, phi 0.150
  O2(g)            -7.81    -11.23   -3.43  O2

**For a gas, SI = log10(fugacity). Fugacity = pressure * phi / 1 atm.
  For ideal gases, phi = 1.

Reaction step 25.

Using solution 1.	
Using gas phase 1.	
Using temperature 5.	
Using reaction 1.	

Reaction 1.	

	  1.000e+00 moles of the following reaction have been added:

	                 Relative
	Reactant            moles

	CO2                  1.00000

	                 Relative
	Element             moles
	C                    1.00000
	O                    2.00000

-----------------------------------Gas phase-----------------------------------

Total pressure: 1066.57      atmospheres          (Peng-Robinson calculation)
    Gas volume:   1.00e+00 liters
  Molar volume:   4.43e-02 liters/mole
   P * Vm / RT:  1.36145  (Compressibility Factor Z) 

                                                        Moles in gas
                                            ----------------------------------
Component         log P           P    phi     Initial       Final       Delta

CO2(g)             3.01   1.013e+03  0.690   2.055e+01   2.143e+01   8.815e-01
H2O(g)             1.73   5.335e+01  0.146   1.117e+00   1.129e+00   1.199e-02

-----------------------------Solution composition------------------------------

	Elements           Molality       Moles

	C                 2.621e+00   2.567e+00

----------------------------Description of solution----------------------------

                                       pH  =   3.051      Charge balance
                                       pe  =   8.829      Adjusted to redox equilibrium
      Specific Conductance (µS/cm, 150°C)  = 618
                          Density (g/cm³)  =   0.98137
                               Volume (L)  =   1.11340
                        Viscosity (mPa s)  =   0.21484
                        Activity of water  =   0.963
                 Ionic strength (mol/kgw)  =   9.259e-04
                       Mass of water (kg)  =   9.797e-01
                 Total alkalinity (eq/kg)  =   1.228e-09
                       Total CO2 (mol/kg)  =   2.621e+00
                         Temperature (°C)  = 150.00
                           Pressure (atm)  = 1066.57
                  Electrical balance (eq)  =  -1.203e-09
 Percent error, 100*(Cat-|An|)/(Cat+|An|)  =  -0.00
                               Iterations  =  38 (139 overall)
                                  Total H  = 1.087553e+02
                                  Total O  = 5.951221e+01

----------------------------Distribution of species----------------------------

                                               Log       Log       Log    mole V
   Species          Molality    Activity  Molality  Activity     Gamma   cm³/mol

   H+              9.259e-04   8.893e-04    -3.033    -3.051    -0.018      0.00
   OH-             7.232e-09   6.930e-09    -8.141    -8.159    -0.019    -13.95
   H2O             5.551e+01   9.628e-01     1.744    -0.016     0.000     18.61
C(-4)         0.000e+00
   CH4             0.000e+00   0.000e+00   -84.607   -84.607     0.000     43.14
C(4)          2.621e+00
   CO2             1.756e+00   1.756e+00     0.245     0.245     0.000     39.58
   (CO2)2          4.318e-01   4.319e-01    -0.365    -0.365     0.000     79.16
   HCO3-           9.259e-04   8.880e-04    -3.033    -3.052    -0.018     25.27
   CO3-2           1.289e-10   1.090e-10    -9.890    -9.963    -0.073     -6.63
H(0)          4.312e-28
   H2              2.156e-28   2.156e-28   -27.666   -27.666     0.000     28.19
O(0)          1.171e-11
   O2              5.855e-12   5.856e-12   -11.232   -11.232     0.000     32.42

------------------------------Saturation indices-------------------------------

  Phase               SI** log IAP   log K(423 K, 1067 atm)

  CH4(g)          -81.14    -84.61   -3.47  CH4
  CO2(g)            2.84      0.24   -2.60  CO2	 Pressure 1013.2 atm, phi 0.690
  H2(g)           -24.31    -27.67   -3.35  H2
  H2O(g)            0.89     -0.02   -0.91  H2O	 Pressure  53.4 atm, phi 0.146
  O2(g)            -7.76    -11.23   -3.47  O2

**For a gas, SI = log10(fugacity). Fugacity = pressure * phi / 1 atm.
  For ideal gases, phi = 1.

Reaction step 26.

Using solution 1.	
Using gas phase 1.	
Using temperature 5.	
Using reaction 1.	

Reaction 1.	

	  1.000e+00 moles of the following reaction have been added:

	                 Relative
	Reactant            moles

	CO2                  1.00000

	                 Relative
	Element             moles
	C                    1.00000
	O                    2.00000

-----------------------------------Gas phase-----------------------------------

Total pressure: 1205.43      atmospheres          (Peng-Robinson calculation)
    Gas volume:   1.00e+00 liters
  Molar volume:   4.27e-02 liters/mole
   P * Vm / RT:  1.48111  (Compressibility Factor Z) 

                                                        Moles in gas
                                            ----------------------------------
Component         log P           P    phi     Initial       Final       Delta

CO2(g)             3.06   1.147e+03  0.729   2.143e+01   2.231e+01   8.745e-01
H2O(g)             1.76   5.818e+01  0.143   1.129e+00   1.131e+00   2.758e-03

-----------------------------Solution composition------------------------------

	Elements           Molality       Moles

	C                 2.749e+00   2.693e+00

----------------------------Description of solution----------------------------

                                       pH  =   3.024      Charge balance
                                       pe  =   8.854      Adjusted to redox equilibrium
      Specific Conductance (µS/cm, 150°C)  = 650
                          Density (g/cm³)  =   0.98809
                               Volume (L)  =   1.11136
                        Viscosity (mPa s)  =   0.21850
                        Activity of water  =   0.961
                 Ionic strength (mol/kgw)  =   9.853e-04
                       Mass of water (kg)  =   9.796e-01
                 Total alkalinity (eq/kg)  =   1.229e-09
                       Total CO2 (mol/kg)  =   2.749e+00
                         Temperature (°C)  = 150.00
                           Pressure (atm)  = 1205.43
                  Electrical balance (eq)  =  -1.204e-09
 Percent error, 100*(Cat-|An|)/(Cat+|An|)  =  -0.00
                               Iterations  =  42 (143 overall)
                                  Total H  = 1.087498e+02
                                  Total O  = 5.976045e+01

----------------------------Distribution of species----------------------------

                                               Log       Log       Log    mole V
   Species          Molality    Activity  Molality  Activity     Gamma   cm³/mol

   H+              9.853e-04   9.455e-04    -3.006    -3.024    -0.018      0.00
   OH-             7.769e-09   7.438e-09    -8.110    -8.129    -0.019    -14.16
   H2O             5.551e+01   9.611e-01     1.744    -0.017     0.000     18.50
C(-4)         0.000e+00
   CH4             0.000e+00   0.000e+00   -84.643   -84.643     0.000     42.84
C(4)          2.749e+00
   CO2             1.820e+00   1.820e+00     0.260     0.260     0.000     39.15
   (CO2)2          4.638e-01   4.639e-01    -0.334    -0.334     0.000     78.30
   HCO3-           9.853e-04   9.441e-04    -3.006    -3.025    -0.019     25.98
   CO3-2           1.427e-10   1.203e-10    -9.845    -9.920    -0.074     -5.10
H(0)          3.892e-28
   H2              1.946e-28   1.946e-28   -27.711   -27.711     0.000     28.16
O(0)          1.172e-11
   O2              5.859e-12   5.860e-12   -11.232   -11.232     0.000     32.11

------------------------------Saturation indices-------------------------------

  Phase               SI** log IAP   log K(423 K, 1205 atm)

  CH4(g)          -81.10    -84.64   -3.54  CH4
  CO2(g)            2.92      0.26   -2.66  CO2	 Pressure 1147.2 atm, phi 0.729
  H2(g)           -24.31    -27.71   -3.40  H2
  H2O(g)            0.92     -0.02   -0.94  H2O	 Pressure  58.2 atm, phi 0.143
  O2(g)            -7.71    -11.23   -3.52  O2

**For a gas, SI = log10(fugacity). Fugacity = pressure * phi / 1 atm.
  For ideal gases, phi = 1.

Reaction step 27.

Using solution 1.	
Using gas phase 1.	
Using temperature 5.	
Using reaction 1.	

Reaction 1.	

	  1.000e+00 moles of the following reaction have been added:

	                 Relative
	Reactant            moles

	CO2                  1.00000

	                 Relative
	Element             moles
	C                    1.00000
	O                    2.00000

-----------------------------------Gas phase-----------------------------------

Total pressure: 1365.16      atmospheres          (Peng-Robinson calculation)
    Gas volume:   1.00e+00 liters
  Molar volume:   4.12e-02 liters/mole
   P * Vm / RT:  1.61801  (Compressibility Factor Z) 

                                                        Moles in gas
                                            ----------------------------------
Component         log P           P    phi     Initial       Final       Delta

CO2(g)             3.11   1.302e+03  0.783   2.231e+01   2.317e+01   8.669e-01
H2O(g)             1.80   6.316e+01  0.143   1.131e+00   1.124e+00  -7.074e-03

-----------------------------Solution composition------------------------------

	Elements           Molality       Moles

	C                 2.884e+00   2.826e+00

----------------------------Description of solution----------------------------

                                       pH  =   2.996      Charge balance
                                       pe  =   8.879      Adjusted to redox equilibrium
      Specific Conductance (µS/cm, 150°C)  = 685
                          Density (g/cm³)  =   0.99549
                               Volume (L)  =   1.10912
                        Viscosity (mPa s)  =   0.22265
                        Activity of water  =   0.959
                 Ionic strength (mol/kgw)  =   1.052e-03
                       Mass of water (kg)  =   9.797e-01
                 Total alkalinity (eq/kg)  =   1.229e-09
                       Total CO2 (mol/kg)  =   2.884e+00
                         Temperature (°C)  = 150.00
                           Pressure (atm)  = 1365.16
                  Electrical balance (eq)  =  -1.204e-09
 Percent error, 100*(Cat-|An|)/(Cat+|An|)  =  -0.00
                               Iterations  =  50 (151 overall)
                                  Total H  = 1.087639e+02
                                  Total O  = 6.003374e+01

----------------------------Distribution of species----------------------------

                                               Log       Log       Log    mole V
   Species          Molality    Activity  Molality  Activity     Gamma   cm³/mol

   H+              1.052e-03   1.008e-03    -2.978    -2.996    -0.018      0.00
   OH-             8.498e-09   8.128e-09    -8.071    -8.090    -0.019    -14.39
   H2O             5.551e+01   9.594e-01     1.744    -0.018     0.000     18.38
C(-4)         0.000e+00
   CH4             0.000e+00   0.000e+00   -84.686   -84.686     0.000     42.52
C(4)          2.884e+00
   CO2             1.887e+00   1.887e+00     0.276     0.276     0.000     38.70
   (CO2)2          4.983e-01   4.984e-01    -0.302    -0.302     0.000     77.40
   HCO3-           1.052e-03   1.007e-03    -2.978    -2.997    -0.019     26.72
   CO3-2           1.597e-10   1.342e-10    -9.797    -9.872    -0.076     -3.49
H(0)          3.462e-28
   H2              1.731e-28   1.731e-28   -27.762   -27.762     0.000     28.12
O(0)          1.172e-11
   O2              5.858e-12   5.860e-12   -11.232   -11.232     0.000     31.79

------------------------------Saturation indices-------------------------------

  Phase               SI** log IAP   log K(423 K, 1365 atm)

  CH4(g)          -81.07    -84.69   -3.62  CH4
  CO2(g)            3.01      0.28   -2.73  CO2	 Pressure 1302.0 atm, phi 0.783
  H2(g)           -24.30    -27.76   -3.46  H2
  H2O(g)            0.95     -0.02   -0.97  H2O	 Pressure  63.2 atm, phi 0.143
  O2(g)            -7.65    -11.23   -3.58  O2

**For a gas, SI = log10(fugacity). Fugacity = pressure * phi / 1 atm.
  For ideal gases, phi = 1.

------------------
End of simulation.
------------------

------------------------------------
Reading input data for simulation 6.
------------------------------------

