WARNING: Database file from DATABASE keyword is used; command line argument ignored.
   Input file: Barite_NaCl
  Output file: Barite_NaCl.out
Database file: ../database/pitzer.dat

------------------
Reading data base.
------------------

	SOLUTION_MASTER_SPECIES
	SOLUTION_SPECIES
	PHASES
	PITZER
	EXCHANGE_MASTER_SPECIES
	EXCHANGE_SPECIES
	SURFACE_MASTER_SPECIES
	SURFACE_SPECIES
	END
------------------------------------
Reading input data for simulation 1.
------------------------------------

	DATABASE ../database/pitzer.dat
	PITZER
	theta
	  Ba+2      Na+       0.02
	SOLUTION 1
	 pH 7 charge
	 temp 50
	EQUILIBRIUM_PHASES
	 Barite
	REACTION
	 NaCl 1
	 0 5*0.1 9*0.5
	INCREMENTAL_REACTIONS true
	USER_GRAPH
	 -plot_csv Barite_NaCl.dat
	 -chart_ti "Barite solubility at 50 oC"
	 axis_titles "NaCl / M" "Barite solubility / M"
	 10 plot_xy tot("Na"), tot("Ba"), color = Red, symbol = None
	END
-------------------------------------------
Beginning of initial solution calculations.
-------------------------------------------

Initial solution 1.	

-----------------------------Solution composition------------------------------

	Elements           Molality       Moles

	Pure water     

----------------------------Description of solution----------------------------

                                       pH  =   6.630      Charge balance
                                       pe  =   4.000    
       Specific Conductance (uS/cm, 50 oC) = 0
                          Density (g/cm3)  =   0.98803
                               Volume (L)  =   1.01212
                        Activity of water  =   1.000
                           Ionic strength  =  2.344e-007
                       Mass of water (kg)  =  1.000e+000
                 Total alkalinity (eq/kg)  =  0.000e+000
                    Total carbon (mol/kg)  =  0.000e+000
                       Total CO2 (mol/kg)  =  0.000e+000
                      Temperature (deg C)  =  50.00
                  Electrical balance (eq)  =  0.000e+000
 Percent error, 100*(Cat-|An|)/(Cat+|An|)  =   0.00
                               Iterations  =   6
                         Gamma iterations  =   2
                      Osmotic coefficient  =   0.99980
                         Density of water  =   0.98803
                                  Total H  = 1.110124e+002
                                  Total O  = 5.550622e+001

----------------------------Distribution of species----------------------------

                                                    MacInnes  MacInnes
                                MacInnes       Log       Log       Log    mole V
   Species          Molality    Activity  Molality  Activity     Gamma   cm3/mol

   OH-            2.344e-007  2.342e-007    -6.630    -6.630    -0.000     -3.64
   H+             2.344e-007  2.342e-007    -6.630    -6.630    -0.000      0.00
   H2O            5.551e+001  1.000e+000     1.744    -0.000     0.000     18.23

------------------------------Saturation indices-------------------------------

	Phase               SI   log IAP   log K(323 K,   1 atm)

	H2O(g)           -0.92     -0.00    0.92  H2O


-----------------------------------------
Beginning of batch-reaction calculations.
-----------------------------------------

Reaction step 1.

Using solution 1.	
Using pure phase assemblage 1.	
Using reaction 1.	

Reaction 1.	

	 0.000e+000 moles of the following reaction have been added:

	                 Relative
	Reactant            moles

	NaCl                 1.00000

	                 Relative
	Element             moles
	Cl                   1.00000
	Na                   1.00000

-------------------------------Phase assemblage--------------------------------

                                                      Moles in assemblage
Phase               SI  log IAP  log K(T, P)   Initial       Final       Delta

Barite            0.00    -9.68     -9.68   1.000e+001  1.000e+001 -1.507e-005

-----------------------------Solution composition------------------------------

	Elements           Molality       Moles

	Ba               1.507e-005  1.507e-005
	S                1.507e-005  1.507e-005

----------------------------Description of solution----------------------------

                                       pH  =   6.631      Charge balance
                                       pe  =   4.000      Adjusted to redox equilibrium
       Specific Conductance (uS/cm, 50 oC) = 7
                          Density (g/cm3)  =   0.98803
                               Volume (L)  =   1.01212
                        Activity of water  =   1.000
                           Ionic strength  =  6.052e-005
                       Mass of water (kg)  =  1.000e+000
                 Total alkalinity (eq/kg)  =  4.223e-015
                    Total carbon (mol/kg)  =  0.000e+000
                       Total CO2 (mol/kg)  =  0.000e+000
                      Temperature (deg C)  =  50.00
                  Electrical balance (eq)  = -4.226e-015
 Percent error, 100*(Cat-|An|)/(Cat+|An|)  =  -0.00
                               Iterations  =  11
                         Gamma iterations  =   5
                      Osmotic coefficient  =   0.98750
                         Density of water  =   0.98803
                                  Total H  = 1.110124e+002
                                  Total O  = 5.550628e+001

----------------------------Distribution of species----------------------------

                                                    MacInnes  MacInnes
                                MacInnes       Log       Log       Log    mole V
   Species          Molality    Activity  Molality  Activity     Gamma   cm3/mol

   OH-            2.368e-007  2.346e-007    -6.626    -6.630    -0.004     -3.63
   H+             2.362e-007  2.339e-007    -6.627    -6.631    -0.004      0.00
   H2O            5.551e+001  1.000e+000     1.744    -0.000     0.000     18.23
Ba           1.507e-005
   Ba+2           1.507e-005  1.450e-005    -4.822    -4.838    -0.017    -11.92
S(6)         1.507e-005
   SO4-2          1.507e-005  1.451e-005    -4.822    -4.838    -0.016     15.12
   HSO4-          6.725e-010  6.661e-010    -9.172    -9.176    -0.004     41.24

------------------------------Saturation indices-------------------------------

	Phase               SI   log IAP   log K(323 K,   1 atm)

	Barite            0.00     -9.68   -9.68  BaSO4
	H2O(g)           -0.92     -0.00    0.92  H2O


Reaction step 2.

Using solution 1.	
Using pure phase assemblage 1.	
Using reaction 1.	

Reaction 1.	

	 1.000e-001 moles of the following reaction have been added:

	                 Relative
	Reactant            moles

	NaCl                 1.00000

	                 Relative
	Element             moles
	Cl                   1.00000
	Na                   1.00000

-------------------------------Phase assemblage--------------------------------

                                                      Moles in assemblage
Phase               SI  log IAP  log K(T, P)   Initial       Final       Delta

Barite            0.00    -9.68     -9.68   1.000e+001  1.000e+001 -2.993e-005

-----------------------------Solution composition------------------------------

	Elements           Molality       Moles

	Ba               4.500e-005  4.500e-005
	Cl               1.000e-001  1.000e-001
	Na               1.000e-001  1.000e-001
	S                4.500e-005  4.500e-005

----------------------------Description of solution----------------------------

                                       pH  =   6.619      Charge balance
                                       pe  =   4.000      Adjusted to redox equilibrium
       Specific Conductance (uS/cm, 50 oC) = 17556
                          Density (g/cm3)  =   0.99201
                               Volume (L)  =   1.01396
                        Activity of water  =   0.997
                           Ionic strength  =  1.002e-001
                       Mass of water (kg)  =  1.000e+000
                 Total alkalinity (eq/kg)  =  9.856e-015
                    Total carbon (mol/kg)  =  0.000e+000
                       Total CO2 (mol/kg)  =  0.000e+000
                      Temperature (deg C)  =  50.00
                  Electrical balance (eq)  = -9.769e-015
 Percent error, 100*(Cat-|An|)/(Cat+|An|)  =  -0.00
                               Iterations  =   9
                         Gamma iterations  =   5
                      Osmotic coefficient  =   0.92993
                         Density of water  =   0.98803
                                  Total H  = 1.110124e+002
                                  Total O  = 5.550640e+001

----------------------------Distribution of species----------------------------

                                                    MacInnes  MacInnes
                                MacInnes       Log       Log       Log    mole V
   Species          Molality    Activity  Molality  Activity     Gamma   cm3/mol

   OH-            3.023e-007  2.275e-007    -6.520    -6.643    -0.123     -3.17
   H+             3.014e-007  2.404e-007    -6.521    -6.619    -0.098      0.00
   H2O            5.551e+001  9.967e-001     1.744    -0.001     0.000     18.23
Ba           4.500e-005
   Ba+2           4.500e-005  1.546e-005    -4.347    -4.811    -0.464    -10.90
Cl           1.000e-001
   Cl-            1.000e-001  7.610e-002    -1.000    -1.119    -0.119     18.56
Na           1.000e-001
   Na+            1.000e-001  7.778e-002    -1.000    -1.109    -0.109     -0.14
S(6)         4.500e-005
   SO4-2          4.500e-005  1.362e-005    -4.347    -4.866    -0.519     16.70
   HSO4-          8.403e-010  6.424e-010    -9.076    -9.192    -0.117     41.59

------------------------------Saturation indices-------------------------------

	Phase               SI   log IAP   log K(323 K,   1 atm)

	Barite            0.00     -9.68   -9.68  BaSO4
	H2O(g)           -0.92     -0.00    0.92  H2O
	Halite           -3.82     -2.23    1.59  NaCl
	Mirabilite       -6.78     -7.10   -0.32  Na2SO4:10H2O


Reaction step 3.

Using solution 1.	
Using pure phase assemblage 1.	
Using reaction 1.	

Reaction 1.	

	 1.000e-001 moles of the following reaction have been added:

	                 Relative
	Reactant            moles

	NaCl                 1.00000

	                 Relative
	Element             moles
	Cl                   1.00000
	Na                   1.00000

-------------------------------Phase assemblage--------------------------------

                                                      Moles in assemblage
Phase               SI  log IAP  log K(T, P)   Initial       Final       Delta

Barite            0.00    -9.68     -9.68   1.000e+001  1.000e+001 -1.496e-005

-----------------------------Solution composition------------------------------

	Elements           Molality       Moles

	Ba               5.996e-005  5.996e-005
	Cl               2.000e-001  2.000e-001
	Na               2.000e-001  2.000e-001
	S                5.996e-005  5.996e-005

----------------------------Description of solution----------------------------

                                       pH  =   6.608      Charge balance
                                       pe  =   4.000      Adjusted to redox equilibrium
       Specific Conductance (uS/cm, 50 oC) = 33830
                          Density (g/cm3)  =   0.99591
                               Volume (L)  =   1.01586
                        Activity of water  =   0.993
                           Ionic strength  =  2.002e-001
                       Mass of water (kg)  =  1.000e+000
                 Total alkalinity (eq/kg)  =  1.588e-014
                    Total carbon (mol/kg)  =  0.000e+000
                       Total CO2 (mol/kg)  =  0.000e+000
                      Temperature (deg C)  =  50.00
                  Electrical balance (eq)  = -1.560e-014
 Percent error, 100*(Cat-|An|)/(Cat+|An|)  =  -0.00
                               Iterations  =  11
                         Gamma iterations  =   5
                      Osmotic coefficient  =   0.92177
                         Density of water  =   0.98803
                                  Total H  = 1.110124e+002
                                  Total O  = 5.550646e+001

----------------------------Distribution of species----------------------------

                                                    MacInnes  MacInnes
                                MacInnes       Log       Log       Log    mole V
   Species          Molality    Activity  Molality  Activity     Gamma   cm3/mol

   OH-            3.181e-007  2.213e-007    -6.497    -6.655    -0.158     -2.93
   H+             3.172e-007  2.463e-007    -6.499    -6.608    -0.110      0.00
   H2O            5.551e+001  9.934e-001     1.744    -0.003     0.000     18.23
Ba           5.996e-005
   Ba+2           5.996e-005  1.629e-005    -4.222    -4.788    -0.566    -10.60
Cl           2.000e-001
   Cl-            2.000e-001  1.421e-001    -0.699    -0.847    -0.148     18.71
Na           2.000e-001
   Na+            2.000e-001  1.479e-001    -0.699    -0.830    -0.131     -0.02
S(6)         5.996e-005
   SO4-2          5.996e-005  1.292e-005    -4.222    -4.889    -0.667     17.37
   HSO4-          8.748e-010  6.246e-010    -9.058    -9.204    -0.146     41.73

------------------------------Saturation indices-------------------------------

	Phase               SI   log IAP   log K(323 K,   1 atm)

	Barite            0.00     -9.68   -9.68  BaSO4
	H2O(g)           -0.92     -0.00    0.92  H2O
	Halite           -3.27     -1.68    1.59  NaCl
	Mirabilite       -6.26     -6.58   -0.32  Na2SO4:10H2O


Reaction step 4.

Using solution 1.	
Using pure phase assemblage 1.	
Using reaction 1.	

Reaction 1.	

	 1.000e-001 moles of the following reaction have been added:

	                 Relative
	Reactant            moles

	NaCl                 1.00000

	                 Relative
	Element             moles
	Cl                   1.00000
	Na                   1.00000

-------------------------------Phase assemblage--------------------------------

                                                      Moles in assemblage
Phase               SI  log IAP  log K(T, P)   Initial       Final       Delta

Barite            0.00    -9.68     -9.68   1.000e+001  1.000e+001 -1.184e-005

-----------------------------Solution composition------------------------------

	Elements           Molality       Moles

	Ba               7.181e-005  7.181e-005
	Cl               3.000e-001  3.000e-001
	Na               3.000e-001  3.000e-001
	S                7.181e-005  7.181e-005

----------------------------Description of solution----------------------------

                                       pH  =   6.598      Charge balance
                                       pe  =   4.000      Adjusted to redox equilibrium
       Specific Conductance (uS/cm, 50 oC) = 49666
                          Density (g/cm3)  =   0.99977
                               Volume (L)  =   1.01778
                        Activity of water  =   0.990
                           Ionic strength  =  3.003e-001
                       Mass of water (kg)  =  1.000e+000
                 Total alkalinity (eq/kg)  =  2.207e-014
                    Total carbon (mol/kg)  =  0.000e+000
                       Total CO2 (mol/kg)  =  0.000e+000
                      Temperature (deg C)  =  50.00
                  Electrical balance (eq)  = -2.163e-014
 Percent error, 100*(Cat-|An|)/(Cat+|An|)  =  -0.00
                               Iterations  =  10
                         Gamma iterations  =   5
                      Osmotic coefficient  =   0.91985
                         Density of water  =   0.98803
                                  Total H  = 1.110124e+002
                                  Total O  = 5.550650e+001

----------------------------Distribution of species----------------------------

                                                    MacInnes  MacInnes
                                MacInnes       Log       Log       Log    mole V
   Species          Molality    Activity  Molality  Activity     Gamma   cm3/mol

   OH-            3.262e-007  2.154e-007    -6.487    -6.667    -0.180     -2.72
   H+             3.253e-007  2.521e-007    -6.488    -6.598    -0.111      0.00
   H2O            5.551e+001  9.901e-001     1.744    -0.004     0.000     18.23
Ba           7.181e-005
   Ba+2           7.181e-005  1.709e-005    -4.144    -4.767    -0.623    -10.39
Cl           3.000e-001
   Cl-            3.000e-001  2.043e-001    -0.523    -0.690    -0.167     18.81
Na           3.000e-001
   Na+            3.000e-001  2.161e-001    -0.523    -0.665    -0.142      0.06
S(6)         7.181e-005
   SO4-2          7.181e-005  1.231e-005    -4.144    -4.910    -0.766     17.87
   HSO4-          8.923e-010  6.094e-010    -9.050    -9.215    -0.166     41.84

------------------------------Saturation indices-------------------------------

	Phase               SI   log IAP   log K(323 K,   1 atm)

	Barite            0.00     -9.68   -9.68  BaSO4
	H2O(g)           -0.92     -0.00    0.92  H2O
	Halite           -2.95     -1.35    1.59  NaCl
	Mirabilite       -5.96     -6.28   -0.32  Na2SO4:10H2O


Reaction step 5.

Using solution 1.	
Using pure phase assemblage 1.	
Using reaction 1.	

Reaction 1.	

	 1.000e-001 moles of the following reaction have been added:

	                 Relative
	Reactant            moles

	NaCl                 1.00000

	                 Relative
	Element             moles
	Cl                   1.00000
	Na                   1.00000

-------------------------------Phase assemblage--------------------------------

                                                      Moles in assemblage
Phase               SI  log IAP  log K(T, P)   Initial       Final       Delta

Barite            0.00    -9.68     -9.68   1.000e+001  1.000e+001 -1.013e-005

-----------------------------Solution composition------------------------------

	Elements           Molality       Moles

	Ba               8.194e-005  8.194e-005
	Cl               4.000e-001  4.000e-001
	Na               4.000e-001  4.000e-001
	S                8.194e-005  8.194e-005

----------------------------Description of solution----------------------------

                                       pH  =   6.589      Charge balance
                                       pe  =   4.000      Adjusted to redox equilibrium
       Specific Conductance (uS/cm, 50 oC) = 64462
                          Density (g/cm3)  =   1.00360
                               Volume (L)  =   1.01974
                        Activity of water  =   0.987
                           Ionic strength  =  4.003e-001
                       Mass of water (kg)  =  1.000e+000
                 Total alkalinity (eq/kg)  =  2.846e-014
                    Total carbon (mol/kg)  =  0.000e+000
                       Total CO2 (mol/kg)  =  0.000e+000
                      Temperature (deg C)  =  50.00
                  Electrical balance (eq)  = -2.777e-014
 Percent error, 100*(Cat-|An|)/(Cat+|An|)  =  -0.00
                               Iterations  =  10
                         Gamma iterations  =   5
                      Osmotic coefficient  =   0.92048
                         Density of water  =   0.98803
                                  Total H  = 1.110124e+002
                                  Total O  = 5.550654e+001

----------------------------Distribution of species----------------------------

                                                    MacInnes  MacInnes
                                MacInnes       Log       Log       Log    mole V
   Species          Molality    Activity  Molality  Activity     Gamma   cm3/mol

   OH-            3.306e-007  2.099e-007    -6.481    -6.678    -0.197     -2.52
   H+             3.297e-007  2.579e-007    -6.482    -6.589    -0.107      0.00
   H2O            5.551e+001  9.868e-001     1.744    -0.006     0.000     18.23
Ba           8.194e-005
   Ba+2           8.194e-005  1.787e-005    -4.087    -4.748    -0.661    -10.22
Cl           4.000e-001
   Cl-            4.000e-001  2.644e-001    -0.398    -0.578    -0.180     18.90
Na           4.000e-001
   Na+            4.000e-001  2.839e-001    -0.398    -0.547    -0.149      0.13
S(6)         8.194e-005
   SO4-2          8.194e-005  1.178e-005    -4.087    -4.929    -0.842     18.30
   HSO4-          9.025e-010  5.961e-010    -9.045    -9.225    -0.180     41.92

------------------------------Saturation indices-------------------------------

	Phase               SI   log IAP   log K(323 K,   1 atm)

	Barite            0.00     -9.68   -9.68  BaSO4
	H2O(g)           -0.92     -0.01    0.92  H2O
	Halite           -2.72     -1.12    1.59  NaCl
	Mirabilite       -5.76     -6.08   -0.32  Na2SO4:10H2O


Reaction step 6.

Using solution 1.	
Using pure phase assemblage 1.	
Using reaction 1.	

Reaction 1.	

	 1.000e-001 moles of the following reaction have been added:

	                 Relative
	Reactant            moles

	NaCl                 1.00000

	                 Relative
	Element             moles
	Cl                   1.00000
	Na                   1.00000

-------------------------------Phase assemblage--------------------------------

                                                      Moles in assemblage
Phase               SI  log IAP  log K(T, P)   Initial       Final       Delta

Barite            0.00    -9.68     -9.68   1.000e+001  1.000e+001 -8.991e-006

-----------------------------Solution composition------------------------------

	Elements           Molality       Moles

	Ba               9.093e-005  9.093e-005
	Cl               5.000e-001  5.000e-001
	Na               5.000e-001  5.000e-001
	S                9.093e-005  9.093e-005

----------------------------Description of solution----------------------------

                                       pH  =   6.579      Charge balance
                                       pe  =   4.000      Adjusted to redox equilibrium
       Specific Conductance (uS/cm, 50 oC) = 77365
                          Density (g/cm3)  =   1.00738
                               Volume (L)  =   1.02171
                        Activity of water  =   0.984
                           Ionic strength  =  5.004e-001
                       Mass of water (kg)  =  1.000e+000
                 Total alkalinity (eq/kg)  =  3.502e-014
                    Total carbon (mol/kg)  =  0.000e+000
                       Total CO2 (mol/kg)  =  0.000e+000
                      Temperature (deg C)  =  50.00
                  Electrical balance (eq)  = -3.395e-014
 Percent error, 100*(Cat-|An|)/(Cat+|An|)  =  -0.00
                               Iterations  =  10
                         Gamma iterations  =   5
                      Osmotic coefficient  =   0.92248
                         Density of water  =   0.98803
                                  Total H  = 1.110124e+002
                                  Total O  = 5.550658e+001

----------------------------Distribution of species----------------------------

                                                    MacInnes  MacInnes
                                MacInnes       Log       Log       Log    mole V
   Species          Molality    Activity  Molality  Activity     Gamma   cm3/mol

   OH-            3.328e-007  2.047e-007    -6.478    -6.689    -0.211     -2.34
   H+             3.319e-007  2.636e-007    -6.479    -6.579    -0.100      0.00
   H2O            5.551e+001  9.835e-001     1.744    -0.007     0.000     18.23
Ba           9.093e-005
   Ba+2           9.093e-005  1.865e-005    -4.041    -4.729    -0.688    -10.08
Cl           5.000e-001
   Cl-            5.000e-001  3.231e-001    -0.301    -0.491    -0.190     18.98
Na           5.000e-001
   Na+            5.000e-001  3.520e-001    -0.301    -0.453    -0.152      0.19
S(6)         9.093e-005
   SO4-2          9.093e-005  1.129e-005    -4.041    -4.947    -0.906     18.68
   HSO4-          9.090e-010  5.841e-010    -9.041    -9.233    -0.192     42.00

------------------------------Saturation indices-------------------------------

	Phase               SI   log IAP   log K(323 K,   1 atm)

	Barite            0.00     -9.68   -9.68  BaSO4
	H2O(g)           -0.92     -0.01    0.92  H2O
	Halite           -2.54     -0.94    1.59  NaCl
	Mirabilite       -5.61     -5.93   -0.32  Na2SO4:10H2O


Reaction step 7.

Using solution 1.	
Using pure phase assemblage 1.	
Using reaction 1.	

Reaction 1.	

	 5.000e-001 moles of the following reaction have been added:

	                 Relative
	Reactant            moles

	NaCl                 1.00000

	                 Relative
	Element             moles
	Cl                   1.00000
	Na                   1.00000

-------------------------------Phase assemblage--------------------------------

                                                      Moles in assemblage
Phase               SI  log IAP  log K(T, P)   Initial       Final       Delta

Barite            0.00    -9.68     -9.68   1.000e+001  1.000e+001 -3.518e-005

-----------------------------Solution composition------------------------------

	Elements           Molality       Moles

	Ba               1.261e-004  1.261e-004
	Cl               1.000e+000  1.000e+000
	Na               1.000e+000  1.000e+000
	S                1.261e-004  1.261e-004

----------------------------Description of solution----------------------------

                                       pH  =   6.533      Charge balance
                                       pe  =   4.000      Adjusted to redox equilibrium
       Specific Conductance (uS/cm, 50 oC) = 132862
                          Density (g/cm3)  =   1.02585
                               Volume (L)  =   1.03181
                        Activity of water  =   0.967
                           Ionic strength  =  1.001e+000
                       Mass of water (kg)  =  1.000e+000
                 Total alkalinity (eq/kg)  =  4.247e-014
                    Total carbon (mol/kg)  =  0.000e+000
                       Total CO2 (mol/kg)  =  0.000e+000
                      Temperature (deg C)  =  50.00
                  Electrical balance (eq)  = -4.044e-014
 Percent error, 100*(Cat-|An|)/(Cat+|An|)  =  -0.00
                               Iterations  =  11
                         Gamma iterations  =   5
                      Osmotic coefficient  =   0.94130
                         Density of water  =   0.98803
                                  Total H  = 1.110124e+002
                                  Total O  = 5.550672e+001

----------------------------Distribution of species----------------------------

                                                    MacInnes  MacInnes
                                MacInnes       Log       Log       Log    mole V
   Species          Molality    Activity  Molality  Activity     Gamma   cm3/mol

   OH-            3.279e-007  1.809e-007    -6.484    -6.743    -0.258     -1.54
   H+             3.270e-007  2.932e-007    -6.485    -6.533    -0.047      0.00
   H2O            5.551e+001  9.666e-001     1.744    -0.015     0.000     18.23
Ba           1.261e-004
   Ba+2           1.261e-004  2.258e-005    -3.899    -4.646    -0.747     -9.51
Cl           1.000e+000
   Cl-            1.000e+000  6.066e-001     0.000    -0.217    -0.217     19.27
Na           1.000e+000
   Na+            1.000e+000  7.067e-001     0.000    -0.151    -0.151      0.41
S(6)         1.261e-004
   SO4-2          1.261e-004  9.320e-006    -3.899    -5.031    -1.131     20.16
   HSO4-          9.201e-010  5.364e-010    -9.036    -9.271    -0.234     42.28

------------------------------Saturation indices-------------------------------

	Phase               SI   log IAP   log K(323 K,   1 atm)

	Barite            0.00     -9.68   -9.68  BaSO4
	H2O(g)           -0.93     -0.01    0.92  H2O
	Halite           -1.96     -0.37    1.59  NaCl
	Mirabilite       -5.16     -5.48   -0.32  Na2SO4:10H2O


Reaction step 8.

Using solution 1.	
Using pure phase assemblage 1.	
Using reaction 1.	

Reaction 1.	

	 5.000e-001 moles of the following reaction have been added:

	                 Relative
	Reactant            moles

	NaCl                 1.00000

	                 Relative
	Element             moles
	Cl                   1.00000
	Na                   1.00000

-------------------------------Phase assemblage--------------------------------

                                                      Moles in assemblage
Phase               SI  log IAP  log K(T, P)   Initial       Final       Delta

Barite            0.00    -9.68     -9.68   1.000e+001  1.000e+001 -2.558e-005

-----------------------------Solution composition------------------------------

	Elements           Molality       Moles

	Ba               1.517e-004  1.517e-004
	Cl               1.500e+000  1.500e+000
	Na               1.500e+000  1.500e+000
	S                1.517e-004  1.517e-004

----------------------------Description of solution----------------------------

                                       pH  =   6.488      Charge balance
                                       pe  =   4.000      Adjusted to redox equilibrium
       Specific Conductance (uS/cm, 50 oC) = 181481
                          Density (g/cm3)  =   1.04365
                               Volume (L)  =   1.04222
                        Activity of water  =   0.949
                           Ionic strength  =  1.501e+000
                       Mass of water (kg)  =  1.000e+000
                 Total alkalinity (eq/kg)  =  5.041e-014
                    Total carbon (mol/kg)  =  0.000e+000
                       Total CO2 (mol/kg)  =  0.000e+000
                      Temperature (deg C)  =  50.00
                  Electrical balance (eq)  = -4.682e-014
 Percent error, 100*(Cat-|An|)/(Cat+|An|)  =  -0.00
                               Iterations  =  10
                         Gamma iterations  =   5
                      Osmotic coefficient  =   0.96664
                         Density of water  =   0.98803
                                  Total H  = 1.110124e+002
                                  Total O  = 5.550682e+001

----------------------------Distribution of species----------------------------

                                                    MacInnes  MacInnes
                                MacInnes       Log       Log       Log    mole V
   Species          Molality    Activity  Molality  Activity     Gamma   cm3/mol

   OH-            3.118e-007  1.601e-007    -6.506    -6.796    -0.290     -0.82
   H+             3.109e-007  3.253e-007    -6.507    -6.488     0.020      0.00
   H2O            5.551e+001  9.491e-001     1.744    -0.023     0.000     18.23
Ba           1.517e-004
   Ba+2           1.517e-004  2.685e-005    -3.819    -4.571    -0.752     -9.05
Cl           1.500e+000
   Cl-            1.500e+000  8.868e-001     0.176    -0.052    -0.228     19.48
Na           1.500e+000
   Na+            1.500e+000  1.101e+000     0.176     0.042    -0.134      0.58
S(6)         1.517e-004
   SO4-2          1.517e-004  7.838e-006    -3.819    -5.106    -1.287     21.29
   HSO4-          9.211e-010  5.004e-010    -9.036    -9.301    -0.265     42.47

------------------------------Saturation indices-------------------------------

	Phase               SI   log IAP   log K(323 K,   1 atm)

	Barite            0.00     -9.68   -9.68  BaSO4
	H2O(g)           -0.94     -0.02    0.92  H2O
	Halite           -1.60     -0.01    1.59  NaCl
	Mirabilite       -4.93     -5.25   -0.32  Na2SO4:10H2O


Reaction step 9.

Using solution 1.	
Using pure phase assemblage 1.	
Using reaction 1.	

Reaction 1.	

	 5.000e-001 moles of the following reaction have been added:

	                 Relative
	Reactant            moles

	NaCl                 1.00000

	                 Relative
	Element             moles
	Cl                   1.00000
	Na                   1.00000

-------------------------------Phase assemblage--------------------------------

                                                      Moles in assemblage
Phase               SI  log IAP  log K(T, P)   Initial       Final       Delta

Barite            0.00    -9.68     -9.68   1.000e+001  1.000e+001 -1.927e-005

-----------------------------Solution composition------------------------------

	Elements           Molality       Moles

	Ba               1.710e-004  1.710e-004
	Cl               2.000e+000  2.000e+000
	Na               2.000e+000  2.000e+000
	S                1.710e-004  1.710e-004

----------------------------Description of solution----------------------------

                                       pH  =   6.443      Charge balance
                                       pe  =   4.000      Adjusted to redox equilibrium
       Specific Conductance (uS/cm, 50 oC) = 230228
                          Density (g/cm3)  =   1.06085
                               Volume (L)  =   1.05287
                        Activity of water  =   0.931
                           Ionic strength  =  2.001e+000
                       Mass of water (kg)  =  1.000e+000
                 Total alkalinity (eq/kg)  =  5.907e-014
                    Total carbon (mol/kg)  =  0.000e+000
                       Total CO2 (mol/kg)  =  0.000e+000
                      Temperature (deg C)  =  50.00
                  Electrical balance (eq)  = -5.322e-014
 Percent error, 100*(Cat-|An|)/(Cat+|An|)  =  -0.00
                               Iterations  =  10
                         Gamma iterations  =   5
                      Osmotic coefficient  =   0.99524
                         Density of water  =   0.98803
                                  Total H  = 1.110124e+002
                                  Total O  = 5.550690e+001

----------------------------Distribution of species----------------------------

                                                    MacInnes  MacInnes
                                MacInnes       Log       Log       Log    mole V
   Species          Molality    Activity  Molality  Activity     Gamma   cm3/mol

   OH-            2.919e-007  1.416e-007    -6.535    -6.849    -0.314     -0.14
   H+             2.909e-007  3.607e-007    -6.536    -6.443     0.093      0.00
   H2O            5.551e+001  9.308e-001     1.744    -0.031     0.000     18.23
Ba           1.710e-004
   Ba+2           1.710e-004  3.163e-005    -3.767    -4.500    -0.733     -8.63
Cl           2.000e+000
   Cl-            2.000e+000  1.172e+000     0.301     0.069    -0.232     19.65
Na           2.000e+000
   Na+            2.000e+000  1.550e+000     0.301     0.190    -0.111      0.73
S(6)         1.710e-004
   SO4-2          1.710e-004  6.654e-006    -3.767    -5.177    -1.410     22.24
   HSO4-          9.211e-010  4.711e-010    -9.036    -9.327    -0.291     42.63

------------------------------Saturation indices-------------------------------

	Phase               SI   log IAP   log K(323 K,   1 atm)

	Barite            0.00     -9.68   -9.68  BaSO4
	H2O(g)           -0.95     -0.03    0.92  H2O
	Halite           -1.33      0.26    1.59  NaCl
	Mirabilite       -4.79     -5.11   -0.32  Na2SO4:10H2O


Reaction step 10.

Using solution 1.	
Using pure phase assemblage 1.	
Using reaction 1.	

Reaction 1.	

	 5.000e-001 moles of the following reaction have been added:

	                 Relative
	Reactant            moles

	NaCl                 1.00000

	                 Relative
	Element             moles
	Cl                   1.00000
	Na                   1.00000

-------------------------------Phase assemblage--------------------------------

                                                      Moles in assemblage
Phase               SI  log IAP  log K(T, P)   Initial       Final       Delta

Barite            0.00    -9.68     -9.68   1.000e+001  1.000e+001 -1.439e-005

-----------------------------Solution composition------------------------------

	Elements           Molality       Moles

	Ba               1.854e-004  1.854e-004
	Cl               2.500e+000  2.500e+000
	Na               2.500e+000  2.500e+000
	S                1.854e-004  1.854e-004

----------------------------Description of solution----------------------------

                                       pH  =   6.398      Charge balance
                                       pe  =   4.000      Adjusted to redox equilibrium
       Specific Conductance (uS/cm, 50 oC) = 284334
                          Density (g/cm3)  =   1.07749
                               Volume (L)  =   1.06373
                        Activity of water  =   0.912
                           Ionic strength  =  2.501e+000
                       Mass of water (kg)  =  1.000e+000
                 Total alkalinity (eq/kg)  =  6.691e-014
                    Total carbon (mol/kg)  =  0.000e+000
                       Total CO2 (mol/kg)  =  0.000e+000
                      Temperature (deg C)  =  50.00
                  Electrical balance (eq)  = -5.784e-014
 Percent error, 100*(Cat-|An|)/(Cat+|An|)  =  -0.00
                               Iterations  =  10
                         Gamma iterations  =   5
                      Osmotic coefficient  =   1.02596
                         Density of water  =   0.98803
                                  Total H  = 1.110124e+002
                                  Total O  = 5.550696e+001

----------------------------Distribution of species----------------------------

                                                    MacInnes  MacInnes
                                MacInnes       Log       Log       Log    mole V
   Species          Molality    Activity  Molality  Activity     Gamma   cm3/mol

   OH-            2.706e-007  1.250e-007    -6.568    -6.903    -0.335      0.51
   H+             2.697e-007  4.001e-007    -6.569    -6.398     0.171      0.00
   H2O            5.551e+001  9.117e-001     1.744    -0.040     0.000     18.23
Ba           1.854e-004
   Ba+2           1.854e-004  3.703e-005    -3.732    -4.431    -0.699     -8.23
Cl           2.500e+000
   Cl-            2.500e+000  1.467e+000     0.398     0.166    -0.232     19.79
Na           2.500e+000
   Na+            2.500e+000  2.068e+000     0.398     0.316    -0.082      0.85
S(6)         1.854e-004
   SO4-2          1.853e-004  5.683e-006    -3.732    -5.245    -1.513     23.08
   HSO4-          9.226e-010  4.463e-010    -9.035    -9.350    -0.315     42.76

------------------------------Saturation indices-------------------------------

	Phase               SI   log IAP   log K(323 K,   1 atm)

	Barite            0.00     -9.68   -9.68  BaSO4
	H2O(g)           -0.96     -0.04    0.92  H2O
	Halite           -1.11      0.48    1.59  NaCl
	Mirabilite       -4.69     -5.02   -0.32  Na2SO4:10H2O


Reaction step 11.

Using solution 1.	
Using pure phase assemblage 1.	
Using reaction 1.	

Reaction 1.	

	 5.000e-001 moles of the following reaction have been added:

	                 Relative
	Reactant            moles

	NaCl                 1.00000

	                 Relative
	Element             moles
	Cl                   1.00000
	Na                   1.00000

-------------------------------Phase assemblage--------------------------------

                                                      Moles in assemblage
Phase               SI  log IAP  log K(T, P)   Initial       Final       Delta

Barite            0.00    -9.68     -9.68   1.000e+001  1.000e+001 -1.045e-005

-----------------------------Solution composition------------------------------

	Elements           Molality       Moles

	Ba               1.958e-004  1.958e-004
	Cl               3.000e+000  3.000e+000
	Na               3.000e+000  3.000e+000
	S                1.958e-004  1.958e-004

----------------------------Description of solution----------------------------

                                       pH  =   6.352      Charge balance
                                       pe  =   4.000      Adjusted to redox equilibrium
       Specific Conductance (uS/cm, 50 oC) = 349008
                          Density (g/cm3)  =   1.09361
                               Volume (L)  =   1.07477
                        Activity of water  =   0.892
                           Ionic strength  =  3.001e+000
                       Mass of water (kg)  =  1.000e+000
                 Total alkalinity (eq/kg)  =  7.550e-014
                    Total carbon (mol/kg)  =  0.000e+000
                       Total CO2 (mol/kg)  =  0.000e+000
                      Temperature (deg C)  =  50.00
                  Electrical balance (eq)  = -6.304e-014
 Percent error, 100*(Cat-|An|)/(Cat+|An|)  =  -0.00
                               Iterations  =  10
                         Gamma iterations  =   5
                      Osmotic coefficient  =   1.05816
                         Density of water  =   0.98803
                                  Total H  = 1.110124e+002
                                  Total O  = 5.550700e+001

----------------------------Distribution of species----------------------------

                                                    MacInnes  MacInnes
                                MacInnes       Log       Log       Log    mole V
   Species          Molality    Activity  Molality  Activity     Gamma   cm3/mol

   OH-            2.494e-007  1.102e-007    -6.603    -6.958    -0.355      1.14
   H+             2.485e-007  4.442e-007    -6.605    -6.352     0.252      0.00
   H2O            5.551e+001  8.919e-001     1.744    -0.050     0.000     18.23
Ba           1.958e-004
   Ba+2           1.958e-004  4.318e-005    -3.708    -4.365    -0.657     -7.85
Cl           3.000e+000
   Cl-            3.000e+000  1.773e+000     0.477     0.249    -0.228     19.91
Na           3.000e+000
   Na+            3.000e+000  2.668e+000     0.477     0.426    -0.051      0.97
S(6)         1.958e-004
   SO4-2          1.958e-004  4.874e-006    -3.708    -5.312    -1.604     23.84
   HSO4-          9.267e-010  4.250e-010    -9.033    -9.372    -0.339     42.87

------------------------------Saturation indices-------------------------------

	Phase               SI   log IAP   log K(323 K,   1 atm)

	Barite            0.00     -9.68   -9.68  BaSO4
	H2O(g)           -0.97     -0.05    0.92  H2O
	Halite           -0.92      0.67    1.59  NaCl
	Mirabilite       -4.64     -4.96   -0.32  Na2SO4:10H2O


Reaction step 12.

Using solution 1.	
Using pure phase assemblage 1.	
Using reaction 1.	

Reaction 1.	

	 5.000e-001 moles of the following reaction have been added:

	                 Relative
	Reactant            moles

	NaCl                 1.00000

	                 Relative
	Element             moles
	Cl                   1.00000
	Na                   1.00000

-------------------------------Phase assemblage--------------------------------

                                                      Moles in assemblage
Phase               SI  log IAP  log K(T, P)   Initial       Final       Delta

Barite            0.00    -9.68     -9.68   1.000e+001  1.000e+001 -7.269e-006

-----------------------------Solution composition------------------------------

	Elements           Molality       Moles

	Ba               2.031e-004  2.031e-004
	Cl               3.500e+000  3.500e+000
	Na               3.500e+000  3.500e+000
	S                2.031e-004  2.031e-004

----------------------------Description of solution----------------------------

                                       pH  =   6.307      Charge balance
                                       pe  =   4.000      Adjusted to redox equilibrium
       Specific Conductance (uS/cm, 50 oC) = 430536
                          Density (g/cm3)  =   1.10924
                               Volume (L)  =   1.08597
                        Activity of water  =   0.871
                           Ionic strength  =  3.501e+000
                       Mass of water (kg)  =  1.000e+000
                 Total alkalinity (eq/kg)  =  8.443e-014
                    Total carbon (mol/kg)  =  0.000e+000
                       Total CO2 (mol/kg)  =  0.000e+000
                      Temperature (deg C)  =  50.00
                  Electrical balance (eq)  = -6.792e-014
 Percent error, 100*(Cat-|An|)/(Cat+|An|)  =  -0.00
                               Iterations  =  10
                         Gamma iterations  =   5
                      Osmotic coefficient  =   1.09141
                         Density of water  =   0.98803
                                  Total H  = 1.110124e+002
                                  Total O  = 5.550703e+001

----------------------------Distribution of species----------------------------

                                                    MacInnes  MacInnes
                                MacInnes       Log       Log       Log    mole V
   Species          Molality    Activity  Molality  Activity     Gamma   cm3/mol

   OH-            2.290e-007  9.685e-008    -6.640    -7.014    -0.374      1.76
   H+             2.280e-007  4.937e-007    -6.642    -6.307     0.335      0.00
   H2O            5.551e+001  8.714e-001     1.744    -0.060     0.000     18.23
Ba           2.031e-004
   Ba+2           2.031e-004  5.018e-005    -3.692    -4.299    -0.607     -7.48
Cl           3.500e+000
   Cl-            3.500e+000  2.092e+000     0.544     0.321    -0.224     20.01
Na           3.500e+000
   Na+            3.500e+000  3.364e+000     0.544     0.527    -0.017      1.08
S(6)         2.031e-004
   SO4-2          2.031e-004  4.194e-006    -3.692    -5.377    -1.685     24.53
   HSO4-          9.342e-010  4.064e-010    -9.030    -9.391    -0.361     42.96

------------------------------Saturation indices-------------------------------

	Phase               SI   log IAP   log K(323 K,   1 atm)

	Barite            0.00     -9.68   -9.68  BaSO4
	H2O(g)           -0.98     -0.06    0.92  H2O
	Halite           -0.74      0.85    1.59  NaCl
	Mirabilite       -4.60     -4.92   -0.32  Na2SO4:10H2O


Reaction step 13.

Using solution 1.	
Using pure phase assemblage 1.	
Using reaction 1.	

Reaction 1.	

	 5.000e-001 moles of the following reaction have been added:

	                 Relative
	Reactant            moles

	NaCl                 1.00000

	                 Relative
	Element             moles
	Cl                   1.00000
	Na                   1.00000

-------------------------------Phase assemblage--------------------------------

                                                      Moles in assemblage
Phase               SI  log IAP  log K(T, P)   Initial       Final       Delta

Barite            0.00    -9.68     -9.68   1.000e+001  1.000e+001 -4.721e-006

-----------------------------Solution composition------------------------------

	Elements           Molality       Moles

	Ba               2.078e-004  2.078e-004
	Cl               4.000e+000  4.000e+000
	Na               4.000e+000  4.000e+000
	S                2.078e-004  2.078e-004

----------------------------Description of solution----------------------------

                                       pH  =   6.260      Charge balance
                                       pe  =   4.000      Adjusted to redox equilibrium
       Specific Conductance (uS/cm, 50 oC) = 508228
                          Density (g/cm3)  =   1.12440
                               Volume (L)  =   1.09732
                        Activity of water  =   0.850
                           Ionic strength  =  4.001e+000
                       Mass of water (kg)  =  1.000e+000
                 Total alkalinity (eq/kg)  =  9.343e-014
                    Total carbon (mol/kg)  =  0.000e+000
                       Total CO2 (mol/kg)  =  0.000e+000
                      Temperature (deg C)  =  50.00
                  Electrical balance (eq)  = -7.145e-014
 Percent error, 100*(Cat-|An|)/(Cat+|An|)  =  -0.00
                               Iterations  =   9
                         Gamma iterations  =   5
                      Osmotic coefficient  =   1.12541
                         Density of water  =   0.98803
                                  Total H  = 1.110124e+002
                                  Total O  = 5.550705e+001

----------------------------Distribution of species----------------------------

                                                    MacInnes  MacInnes
                                MacInnes       Log       Log       Log    mole V
   Species          Molality    Activity  Molality  Activity     Gamma   cm3/mol

   OH-            2.096e-007  8.493e-008    -6.679    -7.071    -0.392      2.37
   H+             2.086e-007  5.493e-007    -6.681    -6.260     0.420      0.00
   H2O            5.551e+001  8.503e-001     1.744    -0.070     0.000     18.23
Ba           2.078e-004
   Ba+2           2.078e-004  5.816e-005    -3.682    -4.235    -0.553     -7.12
Cl           4.000e+000
   Cl-            4.000e+000  2.426e+000     0.602     0.385    -0.217     20.11
Na           4.000e+000
   Na+            4.000e+000  4.175e+000     0.602     0.621     0.019      1.19
S(6)         2.078e-004
   SO4-2          2.078e-004  3.619e-006    -3.682    -5.441    -1.759     25.18
   HSO4-          9.456e-010  3.901e-010    -9.024    -9.409    -0.384     43.04

------------------------------Saturation indices-------------------------------

	Phase               SI   log IAP   log K(323 K,   1 atm)

	Barite            0.00     -9.68   -9.68  BaSO4
	H2O(g)           -0.99     -0.07    0.92  H2O
	Halite           -0.59      1.01    1.59  NaCl
	Mirabilite       -4.58     -4.90   -0.32  Na2SO4:10H2O


Reaction step 14.

Using solution 1.	
Using pure phase assemblage 1.	
Using reaction 1.	

Reaction 1.	

	 5.000e-001 moles of the following reaction have been added:

	                 Relative
	Reactant            moles

	NaCl                 1.00000

	                 Relative
	Element             moles
	Cl                   1.00000
	Na                   1.00000

-------------------------------Phase assemblage--------------------------------

                                                      Moles in assemblage
Phase               SI  log IAP  log K(T, P)   Initial       Final       Delta

Barite            0.00    -9.68     -9.68   1.000e+001  1.000e+001 -2.718e-006

-----------------------------Solution composition------------------------------

	Elements           Molality       Moles

	Ba               2.105e-004  2.105e-004
	Cl               4.500e+000  4.500e+000
	Na               4.500e+000  4.500e+000
	S                2.105e-004  2.105e-004

----------------------------Description of solution----------------------------

                                       pH  =   6.213      Charge balance
                                       pe  =   4.000      Adjusted to redox equilibrium
       Specific Conductance (uS/cm, 50 oC) = 566522
                          Density (g/cm3)  =   1.13911
                               Volume (L)  =   1.10881
                        Activity of water  =   0.829
                           Ionic strength  =  4.501e+000
                       Mass of water (kg)  =  1.000e+000
                 Total alkalinity (eq/kg)  =  9.339e-014
                    Total carbon (mol/kg)  =  0.000e+000
                       Total CO2 (mol/kg)  =  0.000e+000
                      Temperature (deg C)  =  50.00
                  Electrical balance (eq)  = -7.114e-014
 Percent error, 100*(Cat-|An|)/(Cat+|An|)  =  -0.00
                               Iterations  =  10
                         Gamma iterations  =   6
                      Osmotic coefficient  =   1.15994
                         Density of water  =   0.98803
                                  Total H  = 1.110124e+002
                                  Total O  = 5.550706e+001

----------------------------Distribution of species----------------------------

                                                    MacInnes  MacInnes
                                MacInnes       Log       Log       Log    mole V
   Species          Molality    Activity  Molality  Activity     Gamma   cm3/mol

   OH-            1.914e-007  7.430e-008    -6.718    -7.129    -0.411      2.97
   H+             1.905e-007  6.118e-007    -6.720    -6.213     0.507      0.00
   H2O            5.551e+001  8.285e-001     1.744    -0.082     0.000     18.23
Ba           2.105e-004
   Ba+2           2.105e-004  6.726e-005    -3.677    -4.172    -0.496     -6.76
Cl           4.500e+000
   Cl-            4.500e+000  2.774e+000     0.653     0.443    -0.210     20.19
Na           4.500e+000
   Na+            4.500e+000  5.120e+000     0.653     0.709     0.056      1.29
S(6)         2.105e-004
   SO4-2          2.105e-004  3.129e-006    -3.677    -5.505    -1.828     25.79
   HSO4-          9.614e-010  3.758e-010    -9.017    -9.425    -0.408     43.12

------------------------------Saturation indices-------------------------------

	Phase               SI   log IAP   log K(323 K,   1 atm)

	Barite            0.00     -9.68   -9.68  BaSO4
	H2O(g)           -1.00     -0.08    0.92  H2O
	Halite           -0.44      1.15    1.59  NaCl
	Mirabilite       -4.58     -4.90   -0.32  Na2SO4:10H2O


Reaction step 15.

Using solution 1.	
Using pure phase assemblage 1.	
Using reaction 1.	

Reaction 1.	

	 5.000e-001 moles of the following reaction have been added:

	                 Relative
	Reactant            moles

	NaCl                 1.00000

	                 Relative
	Element             moles
	Cl                   1.00000
	Na                   1.00000

-------------------------------Phase assemblage--------------------------------

                                                      Moles in assemblage
Phase               SI  log IAP  log K(T, P)   Initial       Final       Delta

Barite            0.00    -9.68     -9.68   1.000e+001  1.000e+001 -1.176e-006

-----------------------------Solution composition------------------------------

	Elements           Molality       Moles

	Ba               2.117e-004  2.117e-004
	Cl               5.000e+000  5.000e+000
	Na               5.000e+000  5.000e+000
	S                2.117e-004  2.117e-004

----------------------------Description of solution----------------------------

                                       pH  =   6.166      Charge balance
                                       pe  =   4.000      Adjusted to redox equilibrium
       Specific Conductance (uS/cm, 50 oC) = 626023
                          Density (g/cm3)  =   1.15339
                               Volume (L)  =   1.12042
                        Activity of water  =   0.806
                           Ionic strength  =  5.001e+000
                       Mass of water (kg)  =  1.000e+000
                 Total alkalinity (eq/kg)  =  9.370e-014
                    Total carbon (mol/kg)  =  0.000e+000
                       Total CO2 (mol/kg)  =  0.000e+000
                      Temperature (deg C)  =  50.00
                  Electrical balance (eq)  = -7.090e-014
 Percent error, 100*(Cat-|An|)/(Cat+|An|)  =  -0.00
                               Iterations  =  10
                         Gamma iterations  =   6
                      Osmotic coefficient  =   1.19481
                         Density of water  =   0.98803
                                  Total H  = 1.110124e+002
                                  Total O  = 5.550706e+001

----------------------------Distribution of species----------------------------

                                                    MacInnes  MacInnes
                                MacInnes       Log       Log       Log    mole V
   Species          Molality    Activity  Molality  Activity     Gamma   cm3/mol

   OH-            1.746e-007  6.483e-008    -6.758    -7.188    -0.430      3.56
   H+             1.737e-007  6.824e-007    -6.760    -6.166     0.594      0.00
   H2O            5.551e+001  8.063e-001     1.744    -0.093     0.000     18.23
Ba           2.117e-004
   Ba+2           2.117e-004  7.762e-005    -3.674    -4.110    -0.436     -6.40
Cl           5.000e+000
   Cl-            5.000e+000  3.138e+000     0.699     0.497    -0.202     20.27
Na           5.000e+000
   Na+            5.000e+000  6.220e+000     0.699     0.794     0.095      1.39
S(6)         2.117e-004
   SO4-2          2.117e-004  2.711e-006    -3.674    -5.567    -1.892     26.36
   HSO4-          9.823e-010  3.632e-010    -9.008    -9.440    -0.432     43.18

------------------------------Saturation indices-------------------------------

	Phase               SI   log IAP   log K(323 K,   1 atm)

	Barite            0.00     -9.68   -9.68  BaSO4
	H2O(g)           -1.01     -0.09    0.92  H2O
	Halite           -0.30      1.29    1.59  NaCl
	Mirabilite       -4.59     -4.91   -0.32  Na2SO4:10H2O


------------------
End of simulation.
------------------

------------------------------------
Reading input data for simulation 2.
------------------------------------

-------------------------------
End of Run after 0.062 Seconds.
-------------------------------

