WARNING: Database file from DATABASE keyword is used; command line argument ignored.
   Input file: calc_SC
  Output file: calc_SC.out
Database file: ../database/phreeqc.dat

------------------
Reading data base.
------------------

	SOLUTION_MASTER_SPECIES
	SOLUTION_SPECIES
	PHASES
	EXCHANGE_MASTER_SPECIES
	EXCHANGE_SPECIES
	SURFACE_MASTER_SPECIES
	SURFACE_SPECIES
	RATES
	END
------------------------------------
Reading input data for simulation 1.
------------------------------------

	DATABASE ../database/phreeqc.dat
	SOLUTION 1
	 pH 6 charge
	 Ca 2
	 S(6) 2
	 temp 99
	REACTION_TEMPERATURE
	 25
	USER_PRINT
	 10 if step_no > 0 then goto 100
		 20 put(SC, 1)
		 30 viscos = 10^-((1.37023 * (TC - 20) + 0.000836 * (TC - 20)^2) / (109 + TC)) # mPa.s
		 40 put (viscos, 2)
		 50 put (TK, 3)
		 60 goto 200
	 100 print 'Temperatures (C) :    ', get(3) - 273.15, ' / ', TC
	 110 viscos = 10^-((1.37023 * (TC - 20) + 0.000836 * (TC - 20)^2) / (109 + TC))
	 112 print 'Viscosities (mPa.s):  ', get(2), ' / ', viscos
	 120 print 'Ratio of calc.d SC.s: ', get(1) / SC
	 130 print 'Ratio of Dw.s :       ', viscos / get(2)
	 200 end
	END
-------------------------------------------
Beginning of initial solution calculations.
-------------------------------------------

Initial solution 1.	

----------------------------------User print-----------------------------------


-----------------------------Solution composition------------------------------

	Elements           Molality       Moles

	Ca               2.000e-003  2.000e-003
	S(6)             2.000e-003  2.000e-003

----------------------------Description of solution----------------------------

                                       pH  =   6.251      Charge balance
                                       pe  =   4.000    
       Specific Conductance (uS/cm, 99 oC) = 1224
                          Density (g/cm3)  =   0.95933
                               Volume (L)  =   1.04281
                        Activity of water  =   1.000
                           Ionic strength  =  6.618e-003
                       Mass of water (kg)  =  1.000e+000
                 Total alkalinity (eq/kg)  =  3.353e-018
                    Total carbon (mol/kg)  =  0.000e+000
                       Total CO2 (mol/kg)  =  0.000e+000
                      Temperature (deg C)  =  99.00
                  Electrical balance (eq)  = -8.628e-015
 Percent error, 100*(Cat-|An|)/(Cat+|An|)  =  -0.00
                               Iterations  =   4
                                  Total H  = 1.110124e+002
                                  Total O  = 5.551422e+001

----------------------------Distribution of species----------------------------

                                               Log       Log       Log    mole V
   Species          Molality    Activity  Molality  Activity     Gamma   cm3/mol

   OH-            1.100e-006  9.933e-007    -5.959    -6.003    -0.044     -5.71
   H+             6.132e-007  5.606e-007    -6.212    -6.251    -0.039      0.00
   H2O            5.551e+001  9.999e-001     1.744    -0.000     0.000     18.78
Ca           2.000e-003
   Ca+2           1.654e-003  1.119e-003    -2.781    -2.951    -0.170    -19.41
   CaSO4          3.455e-004  3.461e-004    -3.461    -3.461     0.001      8.85
   CaHSO4+        6.468e-009  5.847e-009    -8.189    -8.233    -0.044     (0)  
   CaOH+          3.664e-010  3.312e-010    -9.436    -9.480    -0.044     (0)  
H(0)         2.462e-024
   H2             1.231e-024  1.233e-024   -23.910   -23.909     0.001     28.57
O(0)         7.435e-026
   O2             3.718e-026  3.723e-026   -25.430   -25.429     0.001     33.86
S(6)         2.000e-003
   SO4-2          1.654e-003  1.115e-003    -2.781    -2.953    -0.171     11.77
   CaSO4          3.455e-004  3.461e-004    -3.461    -3.461     0.001      8.85
   HSO4-          4.809e-007  4.347e-007    -6.318    -6.362    -0.044     40.87
   CaHSO4+        6.468e-009  5.847e-009    -8.189    -8.233    -0.044     (0)  

------------------------------Saturation indices-------------------------------

	Phase               SI   log IAP   log K(372 K,   1 atm)

	Anhydrite        -0.66     -5.90   -5.25  CaSO4
	Gypsum           -1.06     -5.90   -4.85  CaSO4:2H2O
	H2(g)           -20.81    -23.91   -3.10  H2
	H2O(g)           -0.02     -0.00    0.02  H2O
	O2(g)           -22.31    -25.43   -3.11  O2


-----------------------------------------
Beginning of batch-reaction calculations.
-----------------------------------------

Reaction step 1.

Using solution 1.	
Using temperature 1.	

----------------------------------User print-----------------------------------

Temperatures (C) :               99  /            25 
Viscosities (mPa.s):    2.8477e-001  /   8.8862e-001 
Ratio of calc.d SC.s:   2.9211e+000 
Ratio of Dw.s :         3.1205e+000 

-----------------------------Solution composition------------------------------

	Elements           Molality       Moles

	Ca               2.000e-003  2.000e-003
	S                2.000e-003  2.000e-003

----------------------------Description of solution----------------------------

                                       pH  =   7.016      Charge balance
                                       pe  =  -1.189      Adjusted to redox equilibrium
       Specific Conductance (uS/cm, 25 oC) = 419
                          Density (g/cm3)  =   0.99732
                               Volume (L)  =   1.00309
                        Activity of water  =   1.000
                           Ionic strength  =  6.927e-003
                       Mass of water (kg)  =  1.000e+000
                 Total alkalinity (eq/kg)  = -1.075e-017
                    Total carbon (mol/kg)  =  0.000e+000
                       Total CO2 (mol/kg)  =  0.000e+000
                      Temperature (deg C)  =  25.00
                  Electrical balance (eq)  = -8.632e-015
 Percent error, 100*(Cat-|An|)/(Cat+|An|)  =  -0.00
                               Iterations  =   9
                                  Total H  = 1.110124e+002
                                  Total O  = 5.551422e+001

----------------------------Distribution of species----------------------------

                                               Log       Log       Log    mole V
   Species          Molality    Activity  Molality  Activity     Gamma   cm3/mol

   OH-            1.147e-007  1.049e-007    -6.940    -6.979    -0.039     -4.05
   H+             1.043e-007  9.644e-008    -6.982    -7.016    -0.034      0.00
   H2O            5.551e+001  9.999e-001     1.744    -0.000     0.000     18.07
Ca           2.000e-003
   Ca+2           1.732e-003  1.231e-003    -2.761    -2.910    -0.148    -17.98
   CaSO4          2.682e-004  2.686e-004    -3.572    -3.571     0.001      7.50
   CaOH+          2.313e-009  2.118e-009    -8.636    -8.674    -0.038     (0)  
   CaHSO4+        1.859e-010  1.703e-010    -9.731    -9.769    -0.038     (0)  
H(0)         3.137e-015
   H2             1.569e-015  1.571e-015   -14.804   -14.804     0.001     28.61
O(0)         0.000e+000
   O2             0.000e+000  0.000e+000   -62.773   -62.772     0.001     30.40
S(-2)        2.482e-023
   HS-            1.402e-023  1.283e-023   -22.853   -22.892    -0.039     20.65
   H2S            1.080e-023  1.081e-023   -22.967   -22.966     0.001     37.16
   S-2            2.266e-029  1.606e-029   -28.645   -28.794    -0.149     (0)  
S(6)         2.000e-003
   SO4-2          1.732e-003  1.227e-003    -2.761    -2.911    -0.150     14.21
   CaSO4          2.682e-004  2.686e-004    -3.572    -3.571     0.001      7.50
   HSO4-          1.256e-008  1.150e-008    -7.901    -7.939    -0.038     40.33
   CaHSO4+        1.859e-010  1.703e-010    -9.731    -9.769    -0.038     (0)  

------------------------------Saturation indices-------------------------------

	Phase               SI   log IAP   log K(298 K,   1 atm)

	Anhydrite        -1.54     -5.82   -4.28  CaSO4
	Gypsum           -1.24     -5.82   -4.58  CaSO4:2H2O
	H2(g)           -11.70    -14.80   -3.10  H2
	H2O(g)           -1.50     -0.00    1.50  H2O
	H2S(g)          -21.92    -29.91   -7.99  H2S
	O2(g)           -59.88    -62.77   -2.89  O2
	Sulfur          -16.19    -11.31    4.88  S


------------------
End of simulation.
------------------

------------------------------------
Reading input data for simulation 2.
------------------------------------

	SOLUTION 2
	 pH 7 charge
	 K 4
	 Cl 4
	 temp 99 
	REACTION_TEMPERATURE
	 25
-------------------------------------------
Beginning of initial solution calculations.
-------------------------------------------

Initial solution 2.	

----------------------------------User print-----------------------------------


-----------------------------Solution composition------------------------------

	Elements           Molality       Moles

	Cl               4.000e-003  4.000e-003
	K                4.000e-003  4.000e-003

----------------------------Description of solution----------------------------

                                       pH  =   6.125      Charge balance
                                       pe  =   4.000    
       Specific Conductance (uS/cm, 99 oC) = 1783
                          Density (g/cm3)  =   0.95925
                               Volume (L)  =   1.04279
                        Activity of water  =   1.000
                           Ionic strength  =  4.001e-003
                       Mass of water (kg)  =  1.000e+000
                 Total alkalinity (eq/kg)  =  2.746e-014
                    Total carbon (mol/kg)  =  0.000e+000
                       Total CO2 (mol/kg)  =  0.000e+000
                      Temperature (deg C)  =  99.00
                  Electrical balance (eq)  = -2.780e-014
 Percent error, 100*(Cat-|An|)/(Cat+|An|)  =  -0.00
                               Iterations  =   4
                                  Total H  = 1.110124e+002
                                  Total O  = 5.550622e+001

----------------------------Distribution of species----------------------------

                                               Log       Log       Log    mole V
   Species          Molality    Activity  Molality  Activity     Gamma   cm3/mol

   OH-            8.059e-007  7.432e-007    -6.094    -6.129    -0.035     -5.75
   H+             8.059e-007  7.492e-007    -6.094    -6.125    -0.032      0.00
   H2O            5.551e+001  9.999e-001     1.744    -0.000     0.000     18.78
Cl           4.000e-003
   Cl-            4.000e-003  3.690e-003    -2.398    -2.433    -0.035     16.31
H(0)         4.400e-024
   H2             2.200e-024  2.202e-024   -23.658   -23.657     0.000     28.57
K            4.000e-003
   K+             4.000e-003  3.689e-003    -2.398    -2.433    -0.035     10.09
O(0)         2.332e-026
   O2             1.166e-026  1.167e-026   -25.933   -25.933     0.000     33.86

------------------------------Saturation indices-------------------------------

	Phase               SI   log IAP   log K(372 K,   1 atm)

	H2(g)           -20.55    -23.66   -3.10  H2
	H2O(g)           -0.02     -0.00    0.02  H2O
	O2(g)           -22.82    -25.93   -3.11  O2
	Sylvite          -6.38     -4.87    1.51  KCl


-----------------------------------------
Beginning of batch-reaction calculations.
-----------------------------------------

Reaction step 1.

Using solution 2.	
Using temperature 1.	

----------------------------------User print-----------------------------------

Temperatures (C) :               99  /            25 
Viscosities (mPa.s):    2.8477e-001  /   8.8862e-001 
Ratio of calc.d SC.s:   3.1005e+000 
Ratio of Dw.s :         3.1205e+000 

-----------------------------Solution composition------------------------------

	Elements           Molality       Moles

	Cl               4.000e-003  4.000e-003
	K                4.000e-003  4.000e-003

----------------------------Description of solution----------------------------

                                       pH  =   6.996      Charge balance
                                       pe  =  10.919      Adjusted to redox equilibrium
       Specific Conductance (uS/cm, 25 oC) = 575
                          Density (g/cm3)  =   0.99723
                               Volume (L)  =   1.00307
                        Activity of water  =   1.000
                           Ionic strength  =  4.000e-003
                       Mass of water (kg)  =  1.000e+000
                 Total alkalinity (eq/kg)  =  2.746e-014
                    Total carbon (mol/kg)  =  0.000e+000
                       Total CO2 (mol/kg)  =  0.000e+000
                      Temperature (deg C)  =  25.00
                  Electrical balance (eq)  = -2.780e-014
 Percent error, 100*(Cat-|An|)/(Cat+|An|)  =  -0.00
                               Iterations  =  11
                                  Total H  = 1.110124e+002
                                  Total O  = 5.550622e+001

----------------------------Distribution of species----------------------------

                                               Log       Log       Log    mole V
   Species          Molality    Activity  Molality  Activity     Gamma   cm3/mol

   OH-            1.075e-007  1.003e-007    -6.969    -6.999    -0.030     -4.07
   H+             1.075e-007  1.009e-007    -6.969    -6.996    -0.027      0.00
   H2O            5.551e+001  9.999e-001     1.744    -0.000     0.000     18.07
Cl           4.000e-003
   Cl-            4.000e-003  3.734e-003    -2.398    -2.428    -0.030     18.10
H(0)         2.093e-039
   H2             1.047e-039  1.048e-039   -38.980   -38.980     0.000     28.61
K            4.000e-003
   K+             4.000e-003  3.733e-003    -2.398    -2.428    -0.030      9.04
O(0)         7.588e-015
   O2             3.794e-015  3.798e-015   -14.421   -14.420     0.000     30.40

------------------------------Saturation indices-------------------------------

	Phase               SI   log IAP   log K(298 K,   1 atm)

	H2(g)           -35.88    -38.98   -3.10  H2
	H2O(g)           -1.50     -0.00    1.50  H2O
	O2(g)           -11.53    -14.42   -2.89  O2
	Sylvite          -5.76     -4.86    0.90  KCl


------------------
End of simulation.
------------------

------------------------------------
Reading input data for simulation 3.
------------------------------------

------------------------------
End of Run after 0.02 Seconds.
------------------------------

