WARNING: Database file from DATABASE keyword is used; command line argument ignored.
   Input file: CH4_conc_PR_IS
  Output file: CH4_conc_PR_IS.out
Database file: ../database/phreeqc.dat

------------------
Reading data base.
------------------

	SOLUTION_MASTER_SPECIES
	SOLUTION_SPECIES
	PHASES
	EXCHANGE_MASTER_SPECIES
	EXCHANGE_SPECIES
	SURFACE_MASTER_SPECIES
	SURFACE_SPECIES
	RATES
	END
------------------------------------
Reading input data for simulation 1.
------------------------------------

	DATABASE ../database/phreeqc.dat
	SOLUTION 1
	SELECTED_OUTPUT
	 reset false
	 file ch4_25.prn
	USER_PUNCH
	  1 sc$ = chr$(59)
	 10 for i = 1.1 to 820 step 20
	 20   punch 'SOLUTION 1' + sc$ + ' -temp 25' + sc$ + ' pH 3 charge' + EOL$ + 'C(-4) 1 CH4(g) ' + str$(log10(i)) + EOL$ + '-pressure ' + str$(i) + EOL$ + 'END' + EOL$
	 30 next i
	END
-------------------------------------------
Beginning of initial solution calculations.
-------------------------------------------

Initial solution 1.	

WARNING: USER_PUNCH: Headings count doesn't match number of calls to PUNCH.

-----------------------------Solution composition------------------------------

	Elements           Molality       Moles

	Pure water     

----------------------------Description of solution----------------------------

                                       pH  =   7.000    
                                       pe  =   4.000    
       Specific Conductance (uS/cm, 25 oC) = 0
                          Density (g/cm3)  =   0.99704
                               Volume (L)  =   1.00297
                        Activity of water  =   1.000
                           Ionic strength  =  1.007e-007
                       Mass of water (kg)  =  1.000e+000
                 Total alkalinity (eq/kg)  =  1.217e-009
                    Total carbon (mol/kg)  =  0.000e+000
                       Total CO2 (mol/kg)  =  0.000e+000
                      Temperature (deg C)  =  25.00
                  Electrical balance (eq)  = -1.217e-009
 Percent error, 100*(Cat-|An|)/(Cat+|An|)  =  -0.60
                               Iterations  =   0
                                  Total H  = 1.110124e+002
                                  Total O  = 5.550622e+001

----------------------------Distribution of species----------------------------

                                               Log       Log       Log    mole V
   Species          Molality    Activity  Molality  Activity     Gamma   cm3/mol

   OH-            1.013e-007  1.012e-007    -6.995    -6.995    -0.000     -4.14
   H+             1.001e-007  1.000e-007    -7.000    -7.000    -0.000      0.00
   H2O            5.551e+001  1.000e+000     1.744     0.000     0.000     18.07
H(0)         1.416e-025
   H2             7.079e-026  7.079e-026   -25.150   -25.150     0.000     28.61
O(0)         0.000e+000
   O2             0.000e+000  0.000e+000   -42.080   -42.080     0.000     30.40

------------------------------Saturation indices-------------------------------

	Phase               SI   log IAP   log K(298 K,   1 atm)

	H2(g)           -22.05    -25.15   -3.10  H2
	H2O(g)           -1.50      0.00    1.50  H2O
	O2(g)           -39.19    -42.08   -2.89  O2


------------------
End of simulation.
------------------

------------------------------------
Reading input data for simulation 2.
------------------------------------

	SELECTED_OUTPUT
	 selected_out false
WARNING: Use PRINT; -selected_output, not SELECTED_OUTPUT; -selected_output
	USER_GRAPH
	 -plot_csv_file CH4_25C.dat
	 -axis_titles "Pressure / atm" "CH4 / (mol/kgw)"
	 -axis_scale x_axis 0 800
	 -axis_scale y_axis 0 0.4
	 -initial_solutions true
	 10 x = PR_P("CH4(g)")
	 20 graph_x x # tot("Na")
	 30 graph_y tot("C(-4)")
	 -end
	SOLUTION 1
	 temp 25
	 pH 3 charge
	C(-4) 1 CH4(g)  4.1393e-002
	pressure  1.1000e+000
	END
-------------------------------------------
Beginning of initial solution calculations.
-------------------------------------------

Initial solution 1.	

-----------------------------Solution composition------------------------------

	Elements           Molality       Moles

	C(-4)            1.575e-003  1.575e-003  Equilibrium with CH4(g)

----------------------------Description of solution----------------------------

                                       pH  =   6.997      Charge balance
                                       pe  =   4.000    
       Specific Conductance (uS/cm, 25 oC) = 0
                          Density (g/cm3)  =   0.99702
                               Volume (L)  =   1.00309
                        Activity of water  =   1.000
                           Ionic strength  =  1.006e-007
                       Mass of water (kg)  =  1.000e+000
                 Total alkalinity (eq/kg)  = -3.643e-019
                    Total carbon (mol/kg)  =  1.575e-003
                       Total CO2 (mol/kg)  =  0.000e+000
                      Temperature (deg C)  =  25.00
                           Pressure (atm)  =  1.10
                  Electrical balance (eq)  =  3.643e-019
 Percent error, 100*(Cat-|An|)/(Cat+|An|)  =   0.00
                               Iterations  =  13
                                  Total H  = 1.110187e+002
                                  Total O  = 5.550622e+001

----------------------------Distribution of species----------------------------

                                               Log       Log       Log    mole V
   Species          Molality    Activity  Molality  Activity     Gamma   cm3/mol

   H+             1.006e-007  1.006e-007    -6.997    -6.997    -0.000      0.00
   OH-            1.006e-007  1.006e-007    -6.997    -6.997    -0.000     -4.14
   H2O            5.551e+001  1.000e+000     1.744    -0.000     0.000     18.07
C(-4)        1.575e-003
   CH4            1.575e-003  1.575e-003    -2.803    -2.803     0.000     32.22
H(0)         1.433e-025
   H2             7.165e-026  7.165e-026   -25.145   -25.145     0.000     28.61
O(0)         0.000e+000
   O2             0.000e+000  0.000e+000   -42.091   -42.091     0.000     30.40

------------------------------Saturation indices-------------------------------

	Phase               SI   log IAP   log K(298 K,   1 atm)

	CH4(g)            0.04     -2.80   -2.84  CH4	 Pressure   1.1 atm, phi 0.998.
	H2(g)           -22.04    -25.14   -3.10  H2
	H2O(g)           -1.50     -0.00    1.50  H2O
	O2(g)           -39.20    -42.09   -2.89  O2


------------------
End of simulation.
------------------

------------------------------------
Reading input data for simulation 3.
------------------------------------

		SOLUTION 1
	 temp 25
	 pH 3 charge
	C(-4) 1 CH4(g)  1.3243e+000
	pressure  2.1100e+001
	END
-------------------------------------------
Beginning of initial solution calculations.
-------------------------------------------

Initial solution 1.	

-----------------------------Solution composition------------------------------

	Elements           Molality       Moles

	C(-4)            2.815e-002  2.815e-002  Equilibrium with CH4(g)

----------------------------Description of solution----------------------------

                                       pH  =   6.994      Charge balance
                                       pe  =   4.000    
       Specific Conductance (uS/cm, 25 oC) = 0
                          Density (g/cm3)  =   0.99750
                               Volume (L)  =   1.00435
                        Activity of water  =   1.000
                           Ionic strength  =  1.015e-007
                       Mass of water (kg)  =  1.000e+000
                 Total alkalinity (eq/kg)  =  4.600e-019
                    Total carbon (mol/kg)  =  2.815e-002
                       Total CO2 (mol/kg)  =  0.000e+000
                      Temperature (deg C)  =  25.00
                           Pressure (atm)  = 21.10
                  Electrical balance (eq)  = -4.600e-019
 Percent error, 100*(Cat-|An|)/(Cat+|An|)  =  -0.00
                               Iterations  =  13
                                  Total H  = 1.111250e+002
                                  Total O  = 5.550622e+001

----------------------------Distribution of species----------------------------

                                               Log       Log       Log    mole V
   Species          Molality    Activity  Molality  Activity     Gamma   cm3/mol

   OH-            1.015e-007  1.015e-007    -6.993    -6.994    -0.000     -4.06
   H+             1.015e-007  1.015e-007    -6.993    -6.994    -0.000      0.00
   H2O            5.551e+001  9.995e-001     1.744    -0.000     0.000     18.05
C(-4)        2.815e-002
   CH4            2.815e-002  2.815e-002    -1.550    -1.550     0.000     32.22
H(0)         1.425e-025
   H2             7.124e-026  7.124e-026   -25.147   -25.147     0.000     28.60
O(0)         0.000e+000
   O2             0.000e+000  0.000e+000   -42.104   -42.104     0.000     30.37

------------------------------Saturation indices-------------------------------

	Phase               SI   log IAP   log K(298 K,  21 atm)

	CH4(g)            1.30     -1.55   -2.85  CH4	 Pressure  21.1 atm, phi 0.954.
	H2(g)           -22.05    -25.15   -3.10  H2
	H2O(g)           -1.50     -0.00    1.50  H2O
	O2(g)           -39.20    -42.10   -2.91  O2


------------------
End of simulation.
------------------

------------------------------------
Reading input data for simulation 4.
------------------------------------

		SOLUTION 1
	 temp 25
	 pH 3 charge
	C(-4) 1 CH4(g)  1.6138e+000
	pressure  4.1100e+001
	END
-------------------------------------------
Beginning of initial solution calculations.
-------------------------------------------

Initial solution 1.	

-----------------------------Solution composition------------------------------

	Elements           Molality       Moles

	C(-4)            5.117e-002  5.117e-002  Equilibrium with CH4(g)

----------------------------Description of solution----------------------------

                                       pH  =   6.990      Charge balance
                                       pe  =   4.000    
       Specific Conductance (uS/cm, 25 oC) = 0
                          Density (g/cm3)  =   0.99802
                               Volume (L)  =   1.00532
                        Activity of water  =   0.999
                           Ionic strength  =  1.024e-007
                       Mass of water (kg)  =  1.000e+000
                 Total alkalinity (eq/kg)  =  1.906e-017
                    Total carbon (mol/kg)  =  5.117e-002
                       Total CO2 (mol/kg)  =  0.000e+000
                      Temperature (deg C)  =  25.00
                           Pressure (atm)  = 41.10
                  Electrical balance (eq)  = -1.906e-017
 Percent error, 100*(Cat-|An|)/(Cat+|An|)  =  -0.00
                               Iterations  =  13
                                  Total H  = 1.112171e+002
                                  Total O  = 5.550622e+001

----------------------------Distribution of species----------------------------

                                               Log       Log       Log    mole V
   Species          Molality    Activity  Molality  Activity     Gamma   cm3/mol

   OH-            1.024e-007  1.024e-007    -6.990    -6.990    -0.000     -3.99
   H+             1.024e-007  1.024e-007    -6.990    -6.990    -0.000      0.00
   H2O            5.551e+001  9.991e-001     1.744    -0.000     0.000     18.04
C(-4)        5.117e-002
   CH4            5.117e-002  5.117e-002    -1.291    -1.291     0.000     32.22
H(0)         1.417e-025
   H2             7.083e-026  7.083e-026   -25.150   -25.150     0.000     28.59
O(0)         0.000e+000
   O2             0.000e+000  0.000e+000   -42.118   -42.118     0.000     30.34

------------------------------Saturation indices-------------------------------

	Phase               SI   log IAP   log K(298 K,  41 atm)

	CH4(g)            1.57     -1.29   -2.87  CH4	 Pressure  41.1 atm, phi 0.914.
	H2(g)           -22.05    -25.15   -3.10  H2
	H2O(g)           -1.49     -0.00    1.49  H2O
	O2(g)           -39.20    -42.12   -2.92  O2


------------------
End of simulation.
------------------

------------------------------------
Reading input data for simulation 5.
------------------------------------

		SOLUTION 1
	 temp 25
	 pH 3 charge
	C(-4) 1 CH4(g)  1.7860e+000
	pressure  6.1100e+001
	END
-------------------------------------------
Beginning of initial solution calculations.
-------------------------------------------

Initial solution 1.	

-----------------------------Solution composition------------------------------

	Elements           Molality       Moles

	C(-4)            7.114e-002  7.114e-002  Equilibrium with CH4(g)

----------------------------Description of solution----------------------------

                                       pH  =   6.986      Charge balance
                                       pe  =   4.000    
       Specific Conductance (uS/cm, 25 oC) = 0
                          Density (g/cm3)  =   0.99860
                               Volume (L)  =   1.00604
                        Activity of water  =   0.999
                           Ionic strength  =  1.033e-007
                       Mass of water (kg)  =  1.000e+000
                 Total alkalinity (eq/kg)  =  4.404e-017
                    Total carbon (mol/kg)  =  7.114e-002
                       Total CO2 (mol/kg)  =  0.000e+000
                      Temperature (deg C)  =  25.00
                           Pressure (atm)  = 61.10
                  Electrical balance (eq)  = -4.404e-017
 Percent error, 100*(Cat-|An|)/(Cat+|An|)  =  -0.00
                               Iterations  =  13
                                  Total H  = 1.112970e+002
                                  Total O  = 5.550622e+001

----------------------------Distribution of species----------------------------

                                               Log       Log       Log    mole V
   Species          Molality    Activity  Molality  Activity     Gamma   cm3/mol

   OH-            1.033e-007  1.033e-007    -6.986    -6.986    -0.000     -3.92
   H+             1.033e-007  1.033e-007    -6.986    -6.986    -0.000      0.00
   H2O            5.551e+001  9.988e-001     1.744    -0.001     0.000     18.02
C(-4)        7.114e-002
   CH4            7.114e-002  7.114e-002    -1.148    -1.148     0.000     32.22
H(0)         1.408e-025
   H2             7.041e-026  7.041e-026   -25.152   -25.152     0.000     28.58
O(0)         0.000e+000
   O2             0.000e+000  0.000e+000   -42.131   -42.131     0.000     30.31

------------------------------Saturation indices-------------------------------

	Phase               SI   log IAP   log K(298 K,  61 atm)

	CH4(g)            1.73     -1.15   -2.88  CH4	 Pressure  61.1 atm, phi 0.878.
	H2(g)           -22.05    -25.15   -3.10  H2
	H2O(g)           -1.48     -0.00    1.48  H2O
	O2(g)           -39.20    -42.13   -2.93  O2


------------------
End of simulation.
------------------

------------------------------------
Reading input data for simulation 6.
------------------------------------

		SOLUTION 1
	 temp 25
	 pH 3 charge
	C(-4) 1 CH4(g)  1.9090e+000
	pressure  8.1100e+001
	END
-------------------------------------------
Beginning of initial solution calculations.
-------------------------------------------

Initial solution 1.	

-----------------------------Solution composition------------------------------

	Elements           Molality       Moles

	C(-4)            8.851e-002  8.851e-002  Equilibrium with CH4(g)

----------------------------Description of solution----------------------------

                                       pH  =   6.982      Charge balance
                                       pe  =   4.000    
       Specific Conductance (uS/cm, 25 oC) = 0
                          Density (g/cm3)  =   0.99921
                               Volume (L)  =   1.00655
                        Activity of water  =   0.998
                           Ionic strength  =  1.042e-007
                       Mass of water (kg)  =  1.000e+000
                 Total alkalinity (eq/kg)  =  6.653e-017
                    Total carbon (mol/kg)  =  8.851e-002
                       Total CO2 (mol/kg)  =  0.000e+000
                      Temperature (deg C)  =  25.00
                           Pressure (atm)  = 81.10
                  Electrical balance (eq)  = -6.653e-017
 Percent error, 100*(Cat-|An|)/(Cat+|An|)  =  -0.00
                               Iterations  =  13
                                  Total H  = 1.113665e+002
                                  Total O  = 5.550622e+001

----------------------------Distribution of species----------------------------

                                               Log       Log       Log    mole V
   Species          Molality    Activity  Molality  Activity     Gamma   cm3/mol

   OH-            1.042e-007  1.042e-007    -6.982    -6.982    -0.000     -3.84
   H+             1.042e-007  1.042e-007    -6.982    -6.982    -0.000      0.00
   H2O            5.551e+001  9.985e-001     1.744    -0.001     0.000     18.00
C(-4)        8.851e-002
   CH4            8.851e-002  8.851e-002    -1.053    -1.053     0.000     32.22
H(0)         1.400e-025
   H2             6.999e-026  6.999e-026   -25.155   -25.155     0.000     28.57
O(0)         0.000e+000
   O2             0.000e+000  0.000e+000   -42.144   -42.144     0.000     30.28

------------------------------Saturation indices-------------------------------

	Phase               SI   log IAP   log K(298 K,  81 atm)

	CH4(g)            1.84     -1.05   -2.89  CH4	 Pressure  81.1 atm, phi 0.845.
	H2(g)           -22.05    -25.15   -3.10  H2
	H2O(g)           -1.48     -0.00    1.48  H2O
	O2(g)           -39.20    -42.14   -2.94  O2


------------------
End of simulation.
------------------

------------------------------------
Reading input data for simulation 7.
------------------------------------

		SOLUTION 1
	 temp 25
	 pH 3 charge
	C(-4) 1 CH4(g)  2.0048e+000
	pressure  1.0110e+002
	END
-------------------------------------------
Beginning of initial solution calculations.
-------------------------------------------

Initial solution 1.	

-----------------------------Solution composition------------------------------

	Elements           Molality       Moles

	C(-4)            1.037e-001  1.037e-001  Equilibrium with CH4(g)

----------------------------Description of solution----------------------------

                                       pH  =   6.978      Charge balance
                                       pe  =   4.000    
       Specific Conductance (uS/cm, 25 oC) = 0
                          Density (g/cm3)  =   0.99985
                               Volume (L)  =   1.00690
                        Activity of water  =   0.998
                           Ionic strength  =  1.051e-007
                       Mass of water (kg)  =  1.000e+000
                 Total alkalinity (eq/kg)  =  8.385e-017
                    Total carbon (mol/kg)  =  1.037e-001
                       Total CO2 (mol/kg)  =  0.000e+000
                      Temperature (deg C)  =  25.00
                           Pressure (atm)  = 101.10
                  Electrical balance (eq)  = -8.385e-017
 Percent error, 100*(Cat-|An|)/(Cat+|An|)  =  -0.00
                               Iterations  =  13
                                  Total H  = 1.114272e+002
                                  Total O  = 5.550622e+001

----------------------------Distribution of species----------------------------

                                               Log       Log       Log    mole V
   Species          Molality    Activity  Molality  Activity     Gamma   cm3/mol

   OH-            1.051e-007  1.051e-007    -6.978    -6.978    -0.000     -3.77
   H+             1.051e-007  1.051e-007    -6.978    -6.978    -0.000      0.00
   H2O            5.551e+001  9.982e-001     1.744    -0.001     0.000     17.99
C(-4)        1.037e-001
   CH4            1.037e-001  1.037e-001    -0.984    -0.984     0.000     32.22
H(0)         1.391e-025
   H2             6.957e-026  6.957e-026   -25.158   -25.158     0.000     28.56
O(0)         0.000e+000
   O2             0.000e+000  0.000e+000   -42.158   -42.158     0.000     30.26

------------------------------Saturation indices-------------------------------

	Phase               SI   log IAP   log K(298 K, 101 atm)

	CH4(g)            1.92     -0.98   -2.90  CH4	 Pressure 101.1 atm, phi 0.815.
	H2(g)           -22.06    -25.16   -3.10  H2
	H2O(g)           -1.47     -0.00    1.47  H2O
	O2(g)           -39.20    -42.16   -2.96  O2


------------------
End of simulation.
------------------

------------------------------------
Reading input data for simulation 8.
------------------------------------

		SOLUTION 1
	 temp 25
	 pH 3 charge
	C(-4) 1 CH4(g)  2.0831e+000
	pressure  1.2110e+002
	END
-------------------------------------------
Beginning of initial solution calculations.
-------------------------------------------

Initial solution 1.	

-----------------------------Solution composition------------------------------

	Elements           Molality       Moles

	C(-4)            1.171e-001  1.171e-001  Equilibrium with CH4(g)

----------------------------Description of solution----------------------------

                                       pH  =   6.975      Charge balance
                                       pe  =   4.000    
       Specific Conductance (uS/cm, 25 oC) = 0
                          Density (g/cm3)  =   1.00052
                               Volume (L)  =   1.00709
                        Activity of water  =   0.998
                           Ionic strength  =  1.060e-007
                       Mass of water (kg)  =  1.000e+000
                 Total alkalinity (eq/kg)  =  9.579e-017
                    Total carbon (mol/kg)  =  1.171e-001
                       Total CO2 (mol/kg)  =  0.000e+000
                      Temperature (deg C)  =  25.00
                           Pressure (atm)  = 121.10
                  Electrical balance (eq)  = -9.579e-017
 Percent error, 100*(Cat-|An|)/(Cat+|An|)  =  -0.00
                               Iterations  =  13
                                  Total H  = 1.114807e+002
                                  Total O  = 5.550622e+001

----------------------------Distribution of species----------------------------

                                               Log       Log       Log    mole V
   Species          Molality    Activity  Molality  Activity     Gamma   cm3/mol

   OH-            1.060e-007  1.060e-007    -6.975    -6.975    -0.000     -3.70
   H+             1.060e-007  1.060e-007    -6.975    -6.975    -0.000      0.00
   H2O            5.551e+001  9.980e-001     1.744    -0.001     0.000     17.97
C(-4)        1.171e-001
   CH4            1.171e-001  1.171e-001    -0.932    -0.932     0.000     32.22
H(0)         1.383e-025
   H2             6.914e-026  6.914e-026   -25.160   -25.160     0.000     28.55
O(0)         0.000e+000
   O2             0.000e+000  0.000e+000   -42.171   -42.171     0.000     30.23

------------------------------Saturation indices-------------------------------

	Phase               SI   log IAP   log K(298 K, 121 atm)

	CH4(g)            1.98     -0.93   -2.91  CH4	 Pressure 121.1 atm, phi 0.789.
	H2(g)           -22.06    -25.16   -3.10  H2
	H2O(g)           -1.47     -0.00    1.46  H2O
	O2(g)           -39.20    -42.17   -2.97  O2


------------------
End of simulation.
------------------

------------------------------------
Reading input data for simulation 9.
------------------------------------

		SOLUTION 1
	 temp 25
	 pH 3 charge
	C(-4) 1 CH4(g)  2.1495e+000
	pressure  1.4110e+002
	END
-------------------------------------------
Beginning of initial solution calculations.
-------------------------------------------

Initial solution 1.	

-----------------------------Solution composition------------------------------

	Elements           Molality       Moles

	C(-4)            1.289e-001  1.289e-001  Equilibrium with CH4(g)

----------------------------Description of solution----------------------------

                                       pH  =   6.971      Charge balance
                                       pe  =   4.000    
       Specific Conductance (uS/cm, 25 oC) = 0
                          Density (g/cm3)  =   1.00121
                               Volume (L)  =   1.00717
                        Activity of water  =   0.998
                           Ionic strength  =  1.069e-007
                       Mass of water (kg)  =  1.000e+000
                 Total alkalinity (eq/kg)  =  1.032e-016
                    Total carbon (mol/kg)  =  1.289e-001
                       Total CO2 (mol/kg)  =  0.000e+000
                      Temperature (deg C)  =  25.00
                           Pressure (atm)  = 141.10
                  Electrical balance (eq)  = -1.032e-016
 Percent error, 100*(Cat-|An|)/(Cat+|An|)  =  -0.00
                               Iterations  =  13
                                  Total H  = 1.115282e+002
                                  Total O  = 5.550622e+001

----------------------------Distribution of species----------------------------

                                               Log       Log       Log    mole V
   Species          Molality    Activity  Molality  Activity     Gamma   cm3/mol

   OH-            1.069e-007  1.069e-007    -6.971    -6.971    -0.000     -3.63
   H+             1.069e-007  1.069e-007    -6.971    -6.971    -0.000      0.00
   H2O            5.551e+001  9.978e-001     1.744    -0.001     0.000     17.96
C(-4)        1.289e-001
   CH4            1.289e-001  1.289e-001    -0.890    -0.890     0.000     32.22
H(0)         1.374e-025
   H2             6.871e-026  6.871e-026   -25.163   -25.163     0.000     28.54
O(0)         0.000e+000
   O2             0.000e+000  0.000e+000   -42.184   -42.184     0.000     30.20

------------------------------Saturation indices-------------------------------

	Phase               SI   log IAP   log K(298 K, 141 atm)

	CH4(g)            2.03     -0.89   -2.92  CH4	 Pressure 141.1 atm, phi 0.766.
	H2(g)           -22.06    -25.16   -3.10  H2
	H2O(g)           -1.46     -0.00    1.46  H2O
	O2(g)           -39.20    -42.18   -2.98  O2


------------------
End of simulation.
------------------

-------------------------------------
Reading input data for simulation 10.
-------------------------------------

		SOLUTION 1
	 temp 25
	 pH 3 charge
	C(-4) 1 CH4(g)  2.2071e+000
	pressure  1.6110e+002
	END
-------------------------------------------
Beginning of initial solution calculations.
-------------------------------------------

Initial solution 1.	

-----------------------------Solution composition------------------------------

	Elements           Molality       Moles

	C(-4)            1.396e-001  1.396e-001  Equilibrium with CH4(g)

----------------------------Description of solution----------------------------

                                       pH  =   6.967      Charge balance
                                       pe  =   4.000    
       Specific Conductance (uS/cm, 25 oC) = 0
                          Density (g/cm3)  =   1.00192
                               Volume (L)  =   1.00715
                        Activity of water  =   0.998
                           Ionic strength  =  1.079e-007
                       Mass of water (kg)  =  1.000e+000
                 Total alkalinity (eq/kg)  =  1.214e-016
                    Total carbon (mol/kg)  =  1.396e-001
                       Total CO2 (mol/kg)  =  0.000e+000
                      Temperature (deg C)  =  25.00
                           Pressure (atm)  = 161.10
                  Electrical balance (eq)  = -1.214e-016
 Percent error, 100*(Cat-|An|)/(Cat+|An|)  =  -0.00
                               Iterations  =  13
                                  Total H  = 1.115709e+002
                                  Total O  = 5.550622e+001

----------------------------Distribution of species----------------------------

                                               Log       Log       Log    mole V
   Species          Molality    Activity  Molality  Activity     Gamma   cm3/mol

   OH-            1.079e-007  1.078e-007    -6.967    -6.967    -0.000     -3.56
   H+             1.079e-007  1.078e-007    -6.967    -6.967    -0.000      0.00
   H2O            5.551e+001  9.976e-001     1.744    -0.001     0.000     17.94
C(-4)        1.396e-001
   CH4            1.396e-001  1.396e-001    -0.855    -0.855     0.000     32.22
H(0)         1.365e-025
   H2             6.827e-026  6.827e-026   -25.166   -25.166     0.000     28.53
O(0)         0.000e+000
   O2             0.000e+000  0.000e+000   -42.197   -42.197     0.000     30.17

------------------------------Saturation indices-------------------------------

	Phase               SI   log IAP   log K(298 K, 161 atm)

	CH4(g)            2.08     -0.86   -2.93  CH4	 Pressure 161.1 atm, phi 0.745.
	H2(g)           -22.06    -25.17   -3.10  H2
	H2O(g)           -1.45     -0.00    1.45  H2O
	O2(g)           -39.20    -42.20   -2.99  O2


------------------
End of simulation.
------------------

-------------------------------------
Reading input data for simulation 11.
-------------------------------------

		SOLUTION 1
	 temp 25
	 pH 3 charge
	C(-4) 1 CH4(g)  2.2579e+000
	pressure  1.8110e+002
	END
-------------------------------------------
Beginning of initial solution calculations.
-------------------------------------------

Initial solution 1.	

-----------------------------Solution composition------------------------------

	Elements           Molality       Moles

	C(-4)            1.493e-001  1.493e-001  Equilibrium with CH4(g)

----------------------------Description of solution----------------------------

                                       pH  =   6.964      Charge balance
                                       pe  =   4.000    
       Specific Conductance (uS/cm, 25 oC) = 0
                          Density (g/cm3)  =   1.00264
                               Volume (L)  =   1.00706
                        Activity of water  =   0.997
                           Ionic strength  =  1.088e-007
                       Mass of water (kg)  =  1.000e+000
                 Total alkalinity (eq/kg)  =  1.224e-016
                    Total carbon (mol/kg)  =  1.493e-001
                       Total CO2 (mol/kg)  =  0.000e+000
                      Temperature (deg C)  =  25.00
                           Pressure (atm)  = 181.10
                  Electrical balance (eq)  = -1.224e-016
 Percent error, 100*(Cat-|An|)/(Cat+|An|)  =  -0.00
                               Iterations  =  13
                                  Total H  = 1.116097e+002
                                  Total O  = 5.550622e+001

----------------------------Distribution of species----------------------------

                                               Log       Log       Log    mole V
   Species          Molality    Activity  Molality  Activity     Gamma   cm3/mol

   OH-            1.088e-007  1.087e-007    -6.964    -6.964    -0.000     -3.50
   H+             1.088e-007  1.087e-007    -6.964    -6.964    -0.000      0.00
   H2O            5.551e+001  9.975e-001     1.744    -0.001     0.000     17.92
C(-4)        1.493e-001
   CH4            1.493e-001  1.493e-001    -0.826    -0.826     0.000     32.22
H(0)         1.357e-025
   H2             6.783e-026  6.783e-026   -25.169   -25.169     0.000     28.52
O(0)         0.000e+000
   O2             0.000e+000  0.000e+000   -42.209   -42.209     0.000     30.15

------------------------------Saturation indices-------------------------------

	Phase               SI   log IAP   log K(298 K, 181 atm)

	CH4(g)            2.12     -0.83   -2.95  CH4	 Pressure 181.1 atm, phi 0.728.
	H2(g)           -22.07    -25.17   -3.10  H2
	H2O(g)           -1.45     -0.00    1.45  H2O
	O2(g)           -39.20    -42.21   -3.01  O2


------------------
End of simulation.
------------------

-------------------------------------
Reading input data for simulation 12.
-------------------------------------

		SOLUTION 1
	 temp 25
	 pH 3 charge
	C(-4) 1 CH4(g)  2.3034e+000
	pressure  2.0110e+002
	END
-------------------------------------------
Beginning of initial solution calculations.
-------------------------------------------

Initial solution 1.	

-----------------------------Solution composition------------------------------

	Elements           Molality       Moles

	C(-4)            1.582e-001  1.582e-001  Equilibrium with CH4(g)

----------------------------Description of solution----------------------------

                                       pH  =   6.960      Charge balance
                                       pe  =   4.000    
       Specific Conductance (uS/cm, 25 oC) = 0
                          Density (g/cm3)  =   1.00337
                               Volume (L)  =   1.00690
                        Activity of water  =   0.997
                           Ionic strength  =  1.097e-007
                       Mass of water (kg)  =  1.000e+000
                 Total alkalinity (eq/kg)  =  1.213e-016
                    Total carbon (mol/kg)  =  1.582e-001
                       Total CO2 (mol/kg)  =  0.000e+000
                      Temperature (deg C)  =  25.00
                           Pressure (atm)  = 201.10
                  Electrical balance (eq)  = -1.213e-016
 Percent error, 100*(Cat-|An|)/(Cat+|An|)  =  -0.00
                               Iterations  =  13
                                  Total H  = 1.116452e+002
                                  Total O  = 5.550622e+001

----------------------------Distribution of species----------------------------

                                               Log       Log       Log    mole V
   Species          Molality    Activity  Molality  Activity     Gamma   cm3/mol

   OH-            1.097e-007  1.096e-007    -6.960    -6.960    -0.000     -3.43
   H+             1.097e-007  1.096e-007    -6.960    -6.960    -0.000      0.00
   H2O            5.551e+001  9.973e-001     1.744    -0.001     0.000     17.91
C(-4)        1.582e-001
   CH4            1.582e-001  1.582e-001    -0.801    -0.801     0.000     32.22
H(0)         1.348e-025
   H2             6.739e-026  6.739e-026   -25.171   -25.171     0.000     28.52
O(0)         0.000e+000
   O2             0.000e+000  0.000e+000   -42.222   -42.222     0.000     30.12

------------------------------Saturation indices-------------------------------

	Phase               SI   log IAP   log K(298 K, 201 atm)

	CH4(g)            2.16     -0.80   -2.96  CH4	 Pressure 201.1 atm, phi 0.713.
	H2(g)           -22.07    -25.17   -3.10  H2
	H2O(g)           -1.44     -0.00    1.44  H2O
	O2(g)           -39.20    -42.22   -3.02  O2


------------------
End of simulation.
------------------

-------------------------------------
Reading input data for simulation 13.
-------------------------------------

		SOLUTION 1
	 temp 25
	 pH 3 charge
	C(-4) 1 CH4(g)  2.3446e+000
	pressure  2.2110e+002
	END
-------------------------------------------
Beginning of initial solution calculations.
-------------------------------------------

Initial solution 1.	

-----------------------------Solution composition------------------------------

	Elements           Molality       Moles

	C(-4)            1.664e-001  1.664e-001  Equilibrium with CH4(g)

----------------------------Description of solution----------------------------

                                       pH  =   6.956      Charge balance
                                       pe  =   4.000    
       Specific Conductance (uS/cm, 25 oC) = 0
                          Density (g/cm3)  =   1.00410
                               Volume (L)  =   1.00670
                        Activity of water  =   0.997
                           Ionic strength  =  1.106e-007
                       Mass of water (kg)  =  1.000e+000
                 Total alkalinity (eq/kg)  =  1.186e-016
                    Total carbon (mol/kg)  =  1.664e-001
                       Total CO2 (mol/kg)  =  0.000e+000
                      Temperature (deg C)  =  25.00
                           Pressure (atm)  = 221.10
                  Electrical balance (eq)  = -1.186e-016
 Percent error, 100*(Cat-|An|)/(Cat+|An|)  =  -0.00
                               Iterations  =  13
                                  Total H  = 1.116781e+002
                                  Total O  = 5.550622e+001

----------------------------Distribution of species----------------------------

                                               Log       Log       Log    mole V
   Species          Molality    Activity  Molality  Activity     Gamma   cm3/mol

   OH-            1.106e-007  1.105e-007    -6.956    -6.956    -0.000     -3.36
   H+             1.106e-007  1.105e-007    -6.956    -6.956    -0.000      0.00
   H2O            5.551e+001  9.972e-001     1.744    -0.001     0.000     17.89
C(-4)        1.664e-001
   CH4            1.664e-001  1.664e-001    -0.779    -0.779     0.000     32.22
H(0)         1.339e-025
   H2             6.694e-026  6.694e-026   -25.174   -25.174     0.000     28.51
O(0)         0.000e+000
   O2             0.000e+000  0.000e+000   -42.234   -42.234     0.000     30.09

------------------------------Saturation indices-------------------------------

	Phase               SI   log IAP   log K(298 K, 221 atm)

	CH4(g)            2.19     -0.78   -2.97  CH4	 Pressure 221.1 atm, phi 0.701.
	H2(g)           -22.07    -25.17   -3.10  H2
	H2O(g)           -1.43     -0.00    1.43  H2O
	O2(g)           -39.20    -42.23   -3.03  O2


------------------
End of simulation.
------------------

-------------------------------------
Reading input data for simulation 14.
-------------------------------------

		SOLUTION 1
	 temp 25
	 pH 3 charge
	C(-4) 1 CH4(g)  2.3822e+000
	pressure  2.4110e+002
	END
-------------------------------------------
Beginning of initial solution calculations.
-------------------------------------------

Initial solution 1.	

-----------------------------Solution composition------------------------------

	Elements           Molality       Moles

	C(-4)            1.741e-001  1.741e-001  Equilibrium with CH4(g)

----------------------------Description of solution----------------------------

                                       pH  =   6.953      Charge balance
                                       pe  =   4.000    
       Specific Conductance (uS/cm, 25 oC) = 0
                          Density (g/cm3)  =   1.00484
                               Volume (L)  =   1.00645
                        Activity of water  =   0.997
                           Ionic strength  =  1.115e-007
                       Mass of water (kg)  =  1.000e+000
                 Total alkalinity (eq/kg)  =  1.147e-016
                    Total carbon (mol/kg)  =  1.741e-001
                       Total CO2 (mol/kg)  =  0.000e+000
                      Temperature (deg C)  =  25.00
                           Pressure (atm)  = 241.10
                  Electrical balance (eq)  = -1.147e-016
 Percent error, 100*(Cat-|An|)/(Cat+|An|)  =  -0.00
                               Iterations  =  13
                                  Total H  = 1.117088e+002
                                  Total O  = 5.550622e+001

----------------------------Distribution of species----------------------------

                                               Log       Log       Log    mole V
   Species          Molality    Activity  Molality  Activity     Gamma   cm3/mol

   OH-            1.115e-007  1.115e-007    -6.953    -6.953    -0.000     -3.30
   H+             1.115e-007  1.115e-007    -6.953    -6.953    -0.000      0.00
   H2O            5.551e+001  9.970e-001     1.744    -0.001     0.000     17.88
C(-4)        1.741e-001
   CH4            1.741e-001  1.741e-001    -0.759    -0.759     0.000     32.22
H(0)         1.330e-025
   H2             6.649e-026  6.649e-026   -25.177   -25.177     0.000     28.50
O(0)         0.000e+000
   O2             0.000e+000  0.000e+000   -42.247   -42.247     0.000     30.07

------------------------------Saturation indices-------------------------------

	Phase               SI   log IAP   log K(298 K, 241 atm)

	CH4(g)            2.22     -0.76   -2.98  CH4	 Pressure 241.1 atm, phi 0.690.
	H2(g)           -22.08    -25.18   -3.10  H2
	H2O(g)           -1.43     -0.00    1.43  H2O
	O2(g)           -39.20    -42.25   -3.04  O2


------------------
End of simulation.
------------------

-------------------------------------
Reading input data for simulation 15.
-------------------------------------

		SOLUTION 1
	 temp 25
	 pH 3 charge
	C(-4) 1 CH4(g)  2.4168e+000
	pressure  2.6110e+002
	END
-------------------------------------------
Beginning of initial solution calculations.
-------------------------------------------

Initial solution 1.	

-----------------------------Solution composition------------------------------

	Elements           Molality       Moles

	C(-4)            1.813e-001  1.813e-001  Equilibrium with CH4(g)

----------------------------Description of solution----------------------------

                                       pH  =   6.949      Charge balance
                                       pe  =   4.000    
       Specific Conductance (uS/cm, 25 oC) = 0
                          Density (g/cm3)  =   1.00559
                               Volume (L)  =   1.00617
                        Activity of water  =   0.997
                           Ionic strength  =  1.124e-007
                       Mass of water (kg)  =  1.000e+000
                 Total alkalinity (eq/kg)  =  1.101e-016
                    Total carbon (mol/kg)  =  1.813e-001
                       Total CO2 (mol/kg)  =  0.000e+000
                      Temperature (deg C)  =  25.00
                           Pressure (atm)  = 261.10
                  Electrical balance (eq)  = -1.101e-016
 Percent error, 100*(Cat-|An|)/(Cat+|An|)  =  -0.00
                               Iterations  =  13
                                  Total H  = 1.117376e+002
                                  Total O  = 5.550622e+001

----------------------------Distribution of species----------------------------

                                               Log       Log       Log    mole V
   Species          Molality    Activity  Molality  Activity     Gamma   cm3/mol

   OH-            1.124e-007  1.124e-007    -6.949    -6.949    -0.000     -3.24
   H+             1.124e-007  1.124e-007    -6.949    -6.949    -0.000      0.00
   H2O            5.551e+001  9.969e-001     1.744    -0.001     0.000     17.86
C(-4)        1.813e-001
   CH4            1.813e-001  1.813e-001    -0.742    -0.742     0.000     32.22
H(0)         1.321e-025
   H2             6.604e-026  6.604e-026   -25.180   -25.180     0.000     28.49
O(0)         0.000e+000
   O2             0.000e+000  0.000e+000   -42.259   -42.259     0.000     30.04

------------------------------Saturation indices-------------------------------

	Phase               SI   log IAP   log K(298 K, 261 atm)

	CH4(g)            2.25     -0.74   -2.99  CH4	 Pressure 261.1 atm, phi 0.681.
	H2(g)           -22.08    -25.18   -3.10  H2
	H2O(g)           -1.42     -0.00    1.42  H2O
	O2(g)           -39.20    -42.26   -3.06  O2


------------------
End of simulation.
------------------

-------------------------------------
Reading input data for simulation 16.
-------------------------------------

		SOLUTION 1
	 temp 25
	 pH 3 charge
	C(-4) 1 CH4(g)  2.4489e+000
	pressure  2.8110e+002
	END
-------------------------------------------
Beginning of initial solution calculations.
-------------------------------------------

Initial solution 1.	

-----------------------------Solution composition------------------------------

	Elements           Molality       Moles

	C(-4)            1.881e-001  1.881e-001  Equilibrium with CH4(g)

----------------------------Description of solution----------------------------

                                       pH  =   6.946      Charge balance
                                       pe  =   4.000    
       Specific Conductance (uS/cm, 25 oC) = 0
                          Density (g/cm3)  =   1.00634
                               Volume (L)  =   1.00586
                        Activity of water  =   0.997
                           Ionic strength  =  1.133e-007
                       Mass of water (kg)  =  1.000e+000
                 Total alkalinity (eq/kg)  =  1.050e-016
                    Total carbon (mol/kg)  =  1.881e-001
                       Total CO2 (mol/kg)  =  0.000e+000
                      Temperature (deg C)  =  25.00
                           Pressure (atm)  = 281.10
                  Electrical balance (eq)  = -1.050e-016
 Percent error, 100*(Cat-|An|)/(Cat+|An|)  =  -0.00
                               Iterations  =  13
                                  Total H  = 1.117649e+002
                                  Total O  = 5.550622e+001

----------------------------Distribution of species----------------------------

                                               Log       Log       Log    mole V
   Species          Molality    Activity  Molality  Activity     Gamma   cm3/mol

   OH-            1.133e-007  1.133e-007    -6.946    -6.946    -0.000     -3.17
   H+             1.133e-007  1.133e-007    -6.946    -6.946    -0.000      0.00
   H2O            5.551e+001  9.968e-001     1.744    -0.001     0.000     17.85
C(-4)        1.881e-001
   CH4            1.881e-001  1.881e-001    -0.726    -0.726     0.000     32.22
H(0)         1.312e-025
   H2             6.558e-026  6.558e-026   -25.183   -25.183     0.000     28.48
O(0)         0.000e+000
   O2             0.000e+000  0.000e+000   -42.271   -42.271     0.000     30.02

------------------------------Saturation indices-------------------------------

	Phase               SI   log IAP   log K(298 K, 281 atm)

	CH4(g)            2.28     -0.73   -3.00  CH4	 Pressure 281.1 atm, phi 0.674.
	H2(g)           -22.08    -25.18   -3.10  H2
	H2O(g)           -1.42     -0.00    1.41  H2O
	O2(g)           -39.20    -42.27   -3.07  O2


------------------
End of simulation.
------------------

-------------------------------------
Reading input data for simulation 17.
-------------------------------------

		SOLUTION 1
	 temp 25
	 pH 3 charge
	C(-4) 1 CH4(g)  2.4787e+000
	pressure  3.0110e+002
	END
-------------------------------------------
Beginning of initial solution calculations.
-------------------------------------------

Initial solution 1.	

-----------------------------Solution composition------------------------------

	Elements           Molality       Moles

	C(-4)            1.945e-001  1.945e-001  Equilibrium with CH4(g)

----------------------------Description of solution----------------------------

                                       pH  =   6.942      Charge balance
                                       pe  =   4.000    
       Specific Conductance (uS/cm, 25 oC) = 0
                          Density (g/cm3)  =   1.00709
                               Volume (L)  =   1.00553
                        Activity of water  =   0.997
                           Ionic strength  =  1.142e-007
                       Mass of water (kg)  =  1.000e+000
                 Total alkalinity (eq/kg)  =  9.954e-017
                    Total carbon (mol/kg)  =  1.945e-001
                       Total CO2 (mol/kg)  =  0.000e+000
                      Temperature (deg C)  =  25.00
                           Pressure (atm)  = 301.10
                  Electrical balance (eq)  = -9.954e-017
 Percent error, 100*(Cat-|An|)/(Cat+|An|)  =  -0.00
                               Iterations  =  13
                                  Total H  = 1.117906e+002
                                  Total O  = 5.550622e+001

----------------------------Distribution of species----------------------------

                                               Log       Log       Log    mole V
   Species          Molality    Activity  Molality  Activity     Gamma   cm3/mol

   OH-            1.142e-007  1.142e-007    -6.942    -6.942    -0.000     -3.11
   H+             1.142e-007  1.142e-007    -6.942    -6.942    -0.000      0.00
   H2O            5.551e+001  9.967e-001     1.744    -0.001     0.000     17.83
C(-4)        1.945e-001
   CH4            1.945e-001  1.945e-001    -0.711    -0.711     0.000     32.22
H(0)         1.302e-025
   H2             6.511e-026  6.511e-026   -25.186   -25.186     0.000     28.47
O(0)         0.000e+000
   O2             0.000e+000  0.000e+000   -42.283   -42.283     0.000     29.99

------------------------------Saturation indices-------------------------------

	Phase               SI   log IAP   log K(298 K, 301 atm)

	CH4(g)            2.30     -0.71   -3.01  CH4	 Pressure 301.1 atm, phi 0.668.
	H2(g)           -22.09    -25.19   -3.10  H2
	H2O(g)           -1.41     -0.00    1.41  H2O
	O2(g)           -39.20    -42.28   -3.08  O2


------------------
End of simulation.
------------------

-------------------------------------
Reading input data for simulation 18.
-------------------------------------

		SOLUTION 1
	 temp 25
	 pH 3 charge
	C(-4) 1 CH4(g)  2.5066e+000
	pressure  3.2110e+002
	END
-------------------------------------------
Beginning of initial solution calculations.
-------------------------------------------

Initial solution 1.	

-----------------------------Solution composition------------------------------

	Elements           Molality       Moles

	C(-4)            2.007e-001  2.007e-001  Equilibrium with CH4(g)

----------------------------Description of solution----------------------------

                                       pH  =   6.939      Charge balance
                                       pe  =   4.000    
       Specific Conductance (uS/cm, 25 oC) = 0
                          Density (g/cm3)  =   1.00784
                               Volume (L)  =   1.00517
                        Activity of water  =   0.997
                           Ionic strength  =  1.152e-007
                       Mass of water (kg)  =  1.000e+000
                 Total alkalinity (eq/kg)  =  9.397e-017
                    Total carbon (mol/kg)  =  2.007e-001
                       Total CO2 (mol/kg)  =  0.000e+000
                      Temperature (deg C)  =  25.00
                           Pressure (atm)  = 321.10
                  Electrical balance (eq)  = -9.397e-017
 Percent error, 100*(Cat-|An|)/(Cat+|An|)  =  -0.00
                               Iterations  =  13
                                  Total H  = 1.118152e+002
                                  Total O  = 5.550622e+001

----------------------------Distribution of species----------------------------

                                               Log       Log       Log    mole V
   Species          Molality    Activity  Molality  Activity     Gamma   cm3/mol

   OH-            1.152e-007  1.151e-007    -6.939    -6.939    -0.000     -3.05
   H+             1.152e-007  1.151e-007    -6.939    -6.939    -0.000      0.00
   H2O            5.551e+001  9.966e-001     1.744    -0.001     0.000     17.82
C(-4)        2.007e-001
   CH4            2.007e-001  2.007e-001    -0.697    -0.697     0.000     32.22
H(0)         1.293e-025
   H2             6.465e-026  6.465e-026   -25.189   -25.189     0.000     28.47
O(0)         0.000e+000
   O2             0.000e+000  0.000e+000   -42.295   -42.295     0.000     29.97

------------------------------Saturation indices-------------------------------

	Phase               SI   log IAP   log K(298 K, 321 atm)

	CH4(g)            2.33     -0.70   -3.03  CH4	 Pressure 321.1 atm, phi 0.664.
	H2(g)           -22.09    -25.19   -3.10  H2
	H2O(g)           -1.40     -0.00    1.40  H2O
	O2(g)           -39.20    -42.30   -3.09  O2


------------------
End of simulation.
------------------

-------------------------------------
Reading input data for simulation 19.
-------------------------------------

		SOLUTION 1
	 temp 25
	 pH 3 charge
	C(-4) 1 CH4(g)  2.5329e+000
	pressure  3.4110e+002
	END
-------------------------------------------
Beginning of initial solution calculations.
-------------------------------------------

Initial solution 1.	

-----------------------------Solution composition------------------------------

	Elements           Molality       Moles

	C(-4)            2.066e-001  2.066e-001  Equilibrium with CH4(g)

----------------------------Description of solution----------------------------

                                       pH  =   6.935      Charge balance
                                       pe  =   4.000    
       Specific Conductance (uS/cm, 25 oC) = 0
                          Density (g/cm3)  =   1.00859
                               Volume (L)  =   1.00481
                        Activity of water  =   0.996
                           Ionic strength  =  1.161e-007
                       Mass of water (kg)  =  1.000e+000
                 Total alkalinity (eq/kg)  =  8.840e-017
                    Total carbon (mol/kg)  =  2.066e-001
                       Total CO2 (mol/kg)  =  0.000e+000
                      Temperature (deg C)  =  25.00
                           Pressure (atm)  = 341.10
                  Electrical balance (eq)  = -8.840e-017
 Percent error, 100*(Cat-|An|)/(Cat+|An|)  =  -0.00
                               Iterations  =  13
                                  Total H  = 1.118388e+002
                                  Total O  = 5.550622e+001

----------------------------Distribution of species----------------------------

                                               Log       Log       Log    mole V
   Species          Molality    Activity  Molality  Activity     Gamma   cm3/mol

   OH-            1.161e-007  1.160e-007    -6.935    -6.935    -0.000     -2.99
   H+             1.161e-007  1.160e-007    -6.935    -6.935    -0.000      0.00
   H2O            5.551e+001  9.965e-001     1.744    -0.002     0.000     17.80
C(-4)        2.066e-001
   CH4            2.066e-001  2.066e-001    -0.685    -0.685     0.000     32.22
H(0)         1.284e-025
   H2             6.418e-026  6.418e-026   -25.193   -25.193     0.000     28.46
O(0)         0.000e+000
   O2             0.000e+000  0.000e+000   -42.307   -42.307     0.000     29.94

------------------------------Saturation indices-------------------------------

	Phase               SI   log IAP   log K(298 K, 341 atm)

	CH4(g)            2.35     -0.68   -3.04  CH4	 Pressure 341.1 atm, phi 0.660.
	H2(g)           -22.09    -25.19   -3.10  H2
	H2O(g)           -1.40     -0.00    1.40  H2O
	O2(g)           -39.20    -42.31   -3.11  O2


------------------
End of simulation.
------------------

-------------------------------------
Reading input data for simulation 20.
-------------------------------------

		SOLUTION 1
	 temp 25
	 pH 3 charge
	C(-4) 1 CH4(g)  2.5576e+000
	pressure  3.6110e+002
	END
-------------------------------------------
Beginning of initial solution calculations.
-------------------------------------------

Initial solution 1.	

-----------------------------Solution composition------------------------------

	Elements           Molality       Moles

	C(-4)            2.122e-001  2.122e-001  Equilibrium with CH4(g)

----------------------------Description of solution----------------------------

                                       pH  =   6.932      Charge balance
                                       pe  =   4.000    
       Specific Conductance (uS/cm, 25 oC) = 0
                          Density (g/cm3)  =   1.00935
                               Volume (L)  =   1.00442
                        Activity of water  =   0.996
                           Ionic strength  =  1.170e-007
                       Mass of water (kg)  =  1.000e+000
                 Total alkalinity (eq/kg)  =  8.286e-017
                    Total carbon (mol/kg)  =  2.122e-001
                       Total CO2 (mol/kg)  =  0.000e+000
                      Temperature (deg C)  =  25.00
                           Pressure (atm)  = 361.10
                  Electrical balance (eq)  = -8.286e-017
 Percent error, 100*(Cat-|An|)/(Cat+|An|)  =  -0.00
                               Iterations  =  13
                                  Total H  = 1.118614e+002
                                  Total O  = 5.550622e+001

----------------------------Distribution of species----------------------------

                                               Log       Log       Log    mole V
   Species          Molality    Activity  Molality  Activity     Gamma   cm3/mol

   OH-            1.170e-007  1.170e-007    -6.932    -6.932    -0.000     -2.92
   H+             1.170e-007  1.170e-007    -6.932    -6.932    -0.000      0.00
   H2O            5.551e+001  9.964e-001     1.744    -0.002     0.000     17.79
C(-4)        2.122e-001
   CH4            2.122e-001  2.122e-001    -0.673    -0.673     0.000     32.22
H(0)         1.274e-025
   H2             6.371e-026  6.371e-026   -25.196   -25.196     0.000     28.45
O(0)         0.000e+000
   O2             0.000e+000  0.000e+000   -42.319   -42.319     0.000     29.92

------------------------------Saturation indices-------------------------------

	Phase               SI   log IAP   log K(298 K, 361 atm)

	CH4(g)            2.38     -0.67   -3.05  CH4	 Pressure 361.1 atm, phi 0.658.
	H2(g)           -22.09    -25.20   -3.10  H2
	H2O(g)           -1.39     -0.00    1.39  H2O
	O2(g)           -39.20    -42.32   -3.12  O2


------------------
End of simulation.
------------------

-------------------------------------
Reading input data for simulation 21.
-------------------------------------

		SOLUTION 1
	 temp 25
	 pH 3 charge
	C(-4) 1 CH4(g)  2.5810e+000
	pressure  3.8110e+002
	END
-------------------------------------------
Beginning of initial solution calculations.
-------------------------------------------

Initial solution 1.	

-----------------------------Solution composition------------------------------

	Elements           Molality       Moles

	C(-4)            2.177e-001  2.177e-001  Equilibrium with CH4(g)

----------------------------Description of solution----------------------------

                                       pH  =   6.929      Charge balance
                                       pe  =   4.000    
       Specific Conductance (uS/cm, 25 oC) = 0
                          Density (g/cm3)  =   1.01010
                               Volume (L)  =   1.00402
                        Activity of water  =   0.996
                           Ionic strength  =  1.179e-007
                       Mass of water (kg)  =  1.000e+000
                 Total alkalinity (eq/kg)  =  7.746e-017
                    Total carbon (mol/kg)  =  2.177e-001
                       Total CO2 (mol/kg)  =  0.000e+000
                      Temperature (deg C)  =  25.00
                           Pressure (atm)  = 381.10
                  Electrical balance (eq)  = -7.746e-017
 Percent error, 100*(Cat-|An|)/(Cat+|An|)  =  -0.00
                               Iterations  =  13
                                  Total H  = 1.118831e+002
                                  Total O  = 5.550622e+001

----------------------------Distribution of species----------------------------

                                               Log       Log       Log    mole V
   Species          Molality    Activity  Molality  Activity     Gamma   cm3/mol

   OH-            1.179e-007  1.179e-007    -6.928    -6.929    -0.000     -2.86
   H+             1.179e-007  1.179e-007    -6.928    -6.929    -0.000      0.00
   H2O            5.551e+001  9.963e-001     1.744    -0.002     0.000     17.77
C(-4)        2.177e-001
   CH4            2.177e-001  2.177e-001    -0.662    -0.662     0.000     32.22
H(0)         1.265e-025
   H2             6.324e-026  6.324e-026   -25.199   -25.199     0.000     28.44
O(0)         0.000e+000
   O2             0.000e+000  0.000e+000   -42.331   -42.331     0.000     29.90

------------------------------Saturation indices-------------------------------

	Phase               SI   log IAP   log K(298 K, 381 atm)

	CH4(g)            2.40     -0.66   -3.06  CH4	 Pressure 381.1 atm, phi 0.656.
	H2(g)           -22.10    -25.20   -3.10  H2
	H2O(g)           -1.38     -0.00    1.38  H2O
	O2(g)           -39.20    -42.33   -3.13  O2


------------------
End of simulation.
------------------

-------------------------------------
Reading input data for simulation 22.
-------------------------------------

		SOLUTION 1
	 temp 25
	 pH 3 charge
	C(-4) 1 CH4(g)  2.6033e+000
	pressure  4.0110e+002
	END
-------------------------------------------
Beginning of initial solution calculations.
-------------------------------------------

Initial solution 1.	

-----------------------------Solution composition------------------------------

	Elements           Molality       Moles

	C(-4)            2.230e-001  2.230e-001  Equilibrium with CH4(g)

----------------------------Description of solution----------------------------

                                       pH  =   6.925      Charge balance
                                       pe  =   4.000    
       Specific Conductance (uS/cm, 25 oC) = 0
                          Density (g/cm3)  =   1.01085
                               Volume (L)  =   1.00362
                        Activity of water  =   0.996
                           Ionic strength  =  1.188e-007
                       Mass of water (kg)  =  1.000e+000
                 Total alkalinity (eq/kg)  =  7.226e-017
                    Total carbon (mol/kg)  =  2.230e-001
                       Total CO2 (mol/kg)  =  0.000e+000
                      Temperature (deg C)  =  25.00
                           Pressure (atm)  = 401.10
                  Electrical balance (eq)  = -7.226e-017
 Percent error, 100*(Cat-|An|)/(Cat+|An|)  =  -0.00
                               Iterations  =  13
                                  Total H  = 1.119043e+002
                                  Total O  = 5.550622e+001

----------------------------Distribution of species----------------------------

                                               Log       Log       Log    mole V
   Species          Molality    Activity  Molality  Activity     Gamma   cm3/mol

   OH-            1.188e-007  1.188e-007    -6.925    -6.925    -0.000     -2.81
   H+             1.188e-007  1.188e-007    -6.925    -6.925    -0.000      0.00
   H2O            5.551e+001  9.962e-001     1.744    -0.002     0.000     17.76
C(-4)        2.230e-001
   CH4            2.230e-001  2.230e-001    -0.652    -0.652     0.000     32.22
H(0)         1.255e-025
   H2             6.276e-026  6.276e-026   -25.202   -25.202     0.000     28.44
O(0)         0.000e+000
   O2             0.000e+000  0.000e+000   -42.343   -42.343     0.000     29.87

------------------------------Saturation indices-------------------------------

	Phase               SI   log IAP   log K(298 K, 401 atm)

	CH4(g)            2.42     -0.65   -3.07  CH4	 Pressure 401.1 atm, phi 0.656.
	H2(g)           -22.10    -25.20   -3.10  H2
	H2O(g)           -1.38     -0.00    1.38  H2O
	O2(g)           -39.20    -42.34   -3.14  O2


------------------
End of simulation.
------------------

-------------------------------------
Reading input data for simulation 23.
-------------------------------------

		SOLUTION 1
	 temp 25
	 pH 3 charge
	C(-4) 1 CH4(g)  2.6244e+000
	pressure  4.2110e+002
	END
-------------------------------------------
Beginning of initial solution calculations.
-------------------------------------------

Initial solution 1.	

-----------------------------Solution composition------------------------------

	Elements           Molality       Moles

	C(-4)            2.280e-001  2.280e-001  Equilibrium with CH4(g)

----------------------------Description of solution----------------------------

                                       pH  =   6.922      Charge balance
                                       pe  =   4.000    
       Specific Conductance (uS/cm, 25 oC) = 0
                          Density (g/cm3)  =   1.01160
                               Volume (L)  =   1.00320
                        Activity of water  =   0.996
                           Ionic strength  =  1.198e-007
                       Mass of water (kg)  =  1.000e+000
                 Total alkalinity (eq/kg)  =  6.723e-017
                    Total carbon (mol/kg)  =  2.280e-001
                       Total CO2 (mol/kg)  =  0.000e+000
                      Temperature (deg C)  =  25.00
                           Pressure (atm)  = 421.10
                  Electrical balance (eq)  = -6.723e-017
 Percent error, 100*(Cat-|An|)/(Cat+|An|)  =  -0.00
                               Iterations  =  13
                                  Total H  = 1.119245e+002
                                  Total O  = 5.550622e+001

----------------------------Distribution of species----------------------------

                                               Log       Log       Log    mole V
   Species          Molality    Activity  Molality  Activity     Gamma   cm3/mol

   OH-            1.198e-007  1.197e-007    -6.922    -6.922    -0.000     -2.75
   H+             1.198e-007  1.197e-007    -6.922    -6.922    -0.000      0.00
   H2O            5.551e+001  9.961e-001     1.744    -0.002     0.000     17.74
C(-4)        2.280e-001
   CH4            2.280e-001  2.280e-001    -0.642    -0.642     0.000     32.22
H(0)         1.246e-025
   H2             6.228e-026  6.228e-026   -25.206   -25.206     0.000     28.43
O(0)         0.000e+000
   O2             0.000e+000  0.000e+000   -42.354   -42.354     0.000     29.85

------------------------------Saturation indices-------------------------------

	Phase               SI   log IAP   log K(298 K, 421 atm)

	CH4(g)            2.44     -0.64   -3.08  CH4	 Pressure 421.1 atm, phi 0.656.
	H2(g)           -22.10    -25.21   -3.10  H2
	H2O(g)           -1.37     -0.00    1.37  H2O
	O2(g)           -39.20    -42.35   -3.16  O2


------------------
End of simulation.
------------------

-------------------------------------
Reading input data for simulation 24.
-------------------------------------

		SOLUTION 1
	 temp 25
	 pH 3 charge
	C(-4) 1 CH4(g)  2.6445e+000
	pressure  4.4110e+002
	END
-------------------------------------------
Beginning of initial solution calculations.
-------------------------------------------

Initial solution 1.	

-----------------------------Solution composition------------------------------

	Elements           Molality       Moles

	C(-4)            2.329e-001  2.329e-001  Equilibrium with CH4(g)

----------------------------Description of solution----------------------------

                                       pH  =   6.918      Charge balance
                                       pe  =   4.000    
       Specific Conductance (uS/cm, 25 oC) = 0
                          Density (g/cm3)  =   1.01235
                               Volume (L)  =   1.00277
                        Activity of water  =   0.996
                           Ionic strength  =  1.207e-007
                       Mass of water (kg)  =  1.000e+000
                 Total alkalinity (eq/kg)  =  6.243e-017
                    Total carbon (mol/kg)  =  2.329e-001
                       Total CO2 (mol/kg)  =  0.000e+000
                      Temperature (deg C)  =  25.00
                           Pressure (atm)  = 441.10
                  Electrical balance (eq)  = -6.243e-017
 Percent error, 100*(Cat-|An|)/(Cat+|An|)  =  -0.00
                               Iterations  =  13
                                  Total H  = 1.119440e+002
                                  Total O  = 5.550622e+001

----------------------------Distribution of species----------------------------

                                               Log       Log       Log    mole V
   Species          Molality    Activity  Molality  Activity     Gamma   cm3/mol

   OH-            1.207e-007  1.206e-007    -6.918    -6.918    -0.000     -2.69
   H+             1.207e-007  1.206e-007    -6.918    -6.918    -0.000      0.00
   H2O            5.551e+001  9.960e-001     1.744    -0.002     0.000     17.73
C(-4)        2.329e-001
   CH4            2.329e-001  2.329e-001    -0.633    -0.633     0.000     32.22
H(0)         1.236e-025
   H2             6.180e-026  6.180e-026   -25.209   -25.209     0.000     28.42
O(0)         0.000e+000
   O2             0.000e+000  0.000e+000   -42.366   -42.366     0.000     29.83

------------------------------Saturation indices-------------------------------

	Phase               SI   log IAP   log K(298 K, 441 atm)

	CH4(g)            2.46     -0.63   -3.09  CH4	 Pressure 441.1 atm, phi 0.657.
	H2(g)           -22.11    -25.21   -3.10  H2
	H2O(g)           -1.37     -0.00    1.36  H2O
	O2(g)           -39.20    -42.37   -3.17  O2


------------------
End of simulation.
------------------

-------------------------------------
Reading input data for simulation 25.
-------------------------------------

		SOLUTION 1
	 temp 25
	 pH 3 charge
	C(-4) 1 CH4(g)  2.6638e+000
	pressure  4.6110e+002
	END
-------------------------------------------
Beginning of initial solution calculations.
-------------------------------------------

Initial solution 1.	

-----------------------------Solution composition------------------------------

	Elements           Molality       Moles

	C(-4)            2.377e-001  2.377e-001  Equilibrium with CH4(g)

----------------------------Description of solution----------------------------

                                       pH  =   6.915      Charge balance
                                       pe  =   4.000    
       Specific Conductance (uS/cm, 25 oC) = 0
                          Density (g/cm3)  =   1.01310
                               Volume (L)  =   1.00233
                        Activity of water  =   0.996
                           Ionic strength  =  1.216e-007
                       Mass of water (kg)  =  1.000e+000
                 Total alkalinity (eq/kg)  =  5.788e-017
                    Total carbon (mol/kg)  =  2.377e-001
                       Total CO2 (mol/kg)  =  0.000e+000
                      Temperature (deg C)  =  25.00
                           Pressure (atm)  = 461.10
                  Electrical balance (eq)  = -5.788e-017
 Percent error, 100*(Cat-|An|)/(Cat+|An|)  =  -0.00
                               Iterations  =  13
                                  Total H  = 1.119631e+002
                                  Total O  = 5.550622e+001

----------------------------Distribution of species----------------------------

                                               Log       Log       Log    mole V
   Species          Molality    Activity  Molality  Activity     Gamma   cm3/mol

   OH-            1.216e-007  1.216e-007    -6.915    -6.915    -0.000     -2.63
   H+             1.216e-007  1.216e-007    -6.915    -6.915    -0.000      0.00
   H2O            5.551e+001  9.960e-001     1.744    -0.002     0.000     17.71
C(-4)        2.377e-001
   CH4            2.377e-001  2.377e-001    -0.624    -0.624     0.000     32.22
H(0)         1.226e-025
   H2             6.132e-026  6.132e-026   -25.212   -25.212     0.000     28.42
O(0)         0.000e+000
   O2             0.000e+000  0.000e+000   -42.377   -42.377     0.000     29.81

------------------------------Saturation indices-------------------------------

	Phase               SI   log IAP   log K(298 K, 461 atm)

	CH4(g)            2.48     -0.62   -3.11  CH4	 Pressure 461.1 atm, phi 0.658.
	H2(g)           -22.11    -25.21   -3.10  H2
	H2O(g)           -1.36     -0.00    1.36  H2O
	O2(g)           -39.20    -42.38   -3.18  O2


------------------
End of simulation.
------------------

-------------------------------------
Reading input data for simulation 26.
-------------------------------------

		SOLUTION 1
	 temp 25
	 pH 3 charge
	C(-4) 1 CH4(g)  2.6822e+000
	pressure  4.8110e+002
	END
-------------------------------------------
Beginning of initial solution calculations.
-------------------------------------------

Initial solution 1.	

-----------------------------Solution composition------------------------------

	Elements           Molality       Moles

	C(-4)            2.423e-001  2.423e-001  Equilibrium with CH4(g)

----------------------------Description of solution----------------------------

                                       pH  =   6.912      Charge balance
                                       pe  =   4.000    
       Specific Conductance (uS/cm, 25 oC) = 0
                          Density (g/cm3)  =   1.01384
                               Volume (L)  =   1.00189
                        Activity of water  =   0.996
                           Ionic strength  =  1.225e-007
                       Mass of water (kg)  =  1.000e+000
                 Total alkalinity (eq/kg)  =  5.357e-017
                    Total carbon (mol/kg)  =  2.423e-001
                       Total CO2 (mol/kg)  =  0.000e+000
                      Temperature (deg C)  =  25.00
                           Pressure (atm)  = 481.10
                  Electrical balance (eq)  = -5.357e-017
 Percent error, 100*(Cat-|An|)/(Cat+|An|)  =  -0.00
                               Iterations  =  13
                                  Total H  = 1.119815e+002
                                  Total O  = 5.550622e+001

----------------------------Distribution of species----------------------------

                                               Log       Log       Log    mole V
   Species          Molality    Activity  Molality  Activity     Gamma   cm3/mol

   OH-            1.225e-007  1.225e-007    -6.912    -6.912    -0.000     -2.58
   H+             1.225e-007  1.225e-007    -6.912    -6.912    -0.000      0.00
   H2O            5.551e+001  9.959e-001     1.744    -0.002     0.000     17.70
C(-4)        2.423e-001
   CH4            2.423e-001  2.423e-001    -0.616    -0.616     0.000     32.22
H(0)         1.217e-025
   H2             6.083e-026  6.083e-026   -25.216   -25.216     0.000     28.41
O(0)         0.000e+000
   O2             0.000e+000  0.000e+000   -42.388   -42.388     0.000     29.78

------------------------------Saturation indices-------------------------------

	Phase               SI   log IAP   log K(298 K, 481 atm)

	CH4(g)            2.50     -0.62   -3.12  CH4	 Pressure 481.1 atm, phi 0.660.
	H2(g)           -22.11    -25.22   -3.10  H2
	H2O(g)           -1.35     -0.00    1.35  H2O
	O2(g)           -39.19    -42.39   -3.19  O2


------------------
End of simulation.
------------------

-------------------------------------
Reading input data for simulation 27.
-------------------------------------

		SOLUTION 1
	 temp 25
	 pH 3 charge
	C(-4) 1 CH4(g)  2.6999e+000
	pressure  5.0110e+002
	END
-------------------------------------------
Beginning of initial solution calculations.
-------------------------------------------

Initial solution 1.	

-----------------------------Solution composition------------------------------

	Elements           Molality       Moles

	C(-4)            2.468e-001  2.468e-001  Equilibrium with CH4(g)

----------------------------Description of solution----------------------------

                                       pH  =   6.909      Charge balance
                                       pe  =   4.000    
       Specific Conductance (uS/cm, 25 oC) = 0
                          Density (g/cm3)  =   1.01459
                               Volume (L)  =   1.00144
                        Activity of water  =   0.996
                           Ionic strength  =  1.235e-007
                       Mass of water (kg)  =  1.000e+000
                 Total alkalinity (eq/kg)  =  4.951e-017
                    Total carbon (mol/kg)  =  2.468e-001
                       Total CO2 (mol/kg)  =  0.000e+000
                      Temperature (deg C)  =  25.00
                           Pressure (atm)  = 501.10
                  Electrical balance (eq)  = -4.951e-017
 Percent error, 100*(Cat-|An|)/(Cat+|An|)  =  -0.00
                               Iterations  =  13
                                  Total H  = 1.119995e+002
                                  Total O  = 5.550622e+001

----------------------------Distribution of species----------------------------

                                               Log       Log       Log    mole V
   Species          Molality    Activity  Molality  Activity     Gamma   cm3/mol

   OH-            1.235e-007  1.234e-007    -6.908    -6.909    -0.000     -2.52
   H+             1.235e-007  1.234e-007    -6.908    -6.909    -0.000      0.00
   H2O            5.551e+001  9.958e-001     1.744    -0.002     0.000     17.68
C(-4)        2.468e-001
   CH4            2.468e-001  2.468e-001    -0.608    -0.608     0.000     32.22
H(0)         1.207e-025
   H2             6.035e-026  6.035e-026   -25.219   -25.219     0.000     28.40
O(0)         0.000e+000
   O2             0.000e+000  0.000e+000   -42.399   -42.399     0.000     29.76

------------------------------Saturation indices-------------------------------

	Phase               SI   log IAP   log K(298 K, 501 atm)

	CH4(g)            2.52     -0.61   -3.13  CH4	 Pressure 501.1 atm, phi 0.663.
	H2(g)           -22.12    -25.22   -3.10  H2
	H2O(g)           -1.35     -0.00    1.35  H2O
	O2(g)           -39.19    -42.40   -3.21  O2


------------------
End of simulation.
------------------

-------------------------------------
Reading input data for simulation 28.
-------------------------------------

		SOLUTION 1
	 temp 25
	 pH 3 charge
	C(-4) 1 CH4(g)  2.7169e+000
	pressure  5.2110e+002
	END
-------------------------------------------
Beginning of initial solution calculations.
-------------------------------------------

Initial solution 1.	

-----------------------------Solution composition------------------------------

	Elements           Molality       Moles

	C(-4)            2.512e-001  2.512e-001  Equilibrium with CH4(g)

----------------------------Description of solution----------------------------

                                       pH  =   6.905      Charge balance
                                       pe  =   4.000    
       Specific Conductance (uS/cm, 25 oC) = 0
                          Density (g/cm3)  =   1.01533
                               Volume (L)  =   1.00099
                        Activity of water  =   0.996
                           Ionic strength  =  1.244e-007
                       Mass of water (kg)  =  1.000e+000
                 Total alkalinity (eq/kg)  =  4.571e-017
                    Total carbon (mol/kg)  =  2.512e-001
                       Total CO2 (mol/kg)  =  0.000e+000
                      Temperature (deg C)  =  25.00
                           Pressure (atm)  = 521.10
                  Electrical balance (eq)  = -4.571e-017
 Percent error, 100*(Cat-|An|)/(Cat+|An|)  =  -0.00
                               Iterations  =  13
                                  Total H  = 1.120170e+002
                                  Total O  = 5.550622e+001

----------------------------Distribution of species----------------------------

                                               Log       Log       Log    mole V
   Species          Molality    Activity  Molality  Activity     Gamma   cm3/mol

   OH-            1.244e-007  1.243e-007    -6.905    -6.905    -0.000     -2.46
[...]

	C(-4)            2.666e-001  2.666e-001  Equilibrium with CH4(g)

----------------------------Description of solution----------------------------

                                       pH  =   5.992      Charge balance
                                       pe  =   4.000    
       Specific Conductance (uS/cm, 100 oC) = 1
                          Density (g/cm3)  =   0.98385
                               Volume (L)  =   1.03404
                        Activity of water  =   0.995
                           Ionic strength  =  1.020e-006
                       Mass of water (kg)  =  1.000e+000
                 Total alkalinity (eq/kg)  =  1.351e-016
                    Total carbon (mol/kg)  =  2.666e-001
                       Total CO2 (mol/kg)  =  0.000e+000
                      Temperature (deg C)  = 100.00
                           Pressure (atm)  = 681.10
                  Electrical balance (eq)  = -1.351e-016
 Percent error, 100*(Cat-|An|)/(Cat+|An|)  =  -0.00
                               Iterations  =  11
                                  Total H  = 1.120787e+002
                                  Total O  = 5.550622e+001

----------------------------Distribution of species----------------------------

                                               Log       Log       Log    mole V
   Species          Molality    Activity  Molality  Activity     Gamma   cm3/mol

   OH-            1.020e-006  1.019e-006    -5.991    -5.992    -0.001     -8.34
   H+             1.020e-006  1.019e-006    -5.991    -5.992    -0.001      0.00
   H2O            5.551e+001  9.955e-001     1.744    -0.002     0.000     18.24
C(-4)        2.666e-001
   CH4            2.666e-001  2.666e-001    -0.574    -0.574     0.000     32.22
H(0)         4.314e-024
   H2             2.157e-024  2.157e-024   -23.666   -23.666     0.000     28.31
O(0)         1.217e-026
   O2             6.085e-027  6.085e-027   -26.216   -26.216     0.000     32.07

------------------------------Saturation indices-------------------------------

	Phase               SI   log IAP   log K(373 K, 681 atm)

	CH4(g)            2.80     -0.57   -3.38  CH4	 Pressure 681.1 atm, phi 0.928.
	H2(g)           -20.57    -23.67   -3.10  H2
	H2O(g)            0.17     -0.00   -0.17  H2O
	O2(g)           -22.75    -26.22   -3.47  O2


------------------
End of simulation.
------------------

--------------------------------------
Reading input data for simulation 123.
--------------------------------------

		SOLUTION 1
	 temp 100
	 pH 3 charge
	C(-4) 1 CH4(g)  2.8458e+000
	pressure  7.0110e+002
	END
-------------------------------------------
Beginning of initial solution calculations.
-------------------------------------------

Initial solution 1.	

-----------------------------Solution composition------------------------------

	Elements           Molality       Moles

	C(-4)            2.710e-001  2.710e-001  Equilibrium with CH4(g)

----------------------------Description of solution----------------------------

                                       pH  =   5.988      Charge balance
                                       pe  =   4.000    
       Specific Conductance (uS/cm, 100 oC) = 1
                          Density (g/cm3)  =   0.98457
                               Volume (L)  =   1.03358
                        Activity of water  =   0.995
                           Ionic strength  =  1.029e-006
                       Mass of water (kg)  =  1.000e+000
                 Total alkalinity (eq/kg)  =  1.179e-016
                    Total carbon (mol/kg)  =  2.710e-001
                       Total CO2 (mol/kg)  =  0.000e+000
                      Temperature (deg C)  = 100.00
                           Pressure (atm)  = 701.10
                  Electrical balance (eq)  = -1.179e-016
 Percent error, 100*(Cat-|An|)/(Cat+|An|)  =  -0.00
                               Iterations  =  11
                                  Total H  = 1.120964e+002
                                  Total O  = 5.550622e+001

----------------------------Distribution of species----------------------------

                                               Log       Log       Log    mole V
   Species          Molality    Activity  Molality  Activity     Gamma   cm3/mol

   OH-            1.029e-006  1.028e-006    -5.987    -5.988    -0.001     -8.39
   H+             1.029e-006  1.028e-006    -5.987    -5.988    -0.001      0.00
   H2O            5.551e+001  9.954e-001     1.744    -0.002     0.000     18.22
C(-4)        2.710e-001
   CH4            2.710e-001  2.710e-001    -0.567    -0.567     0.000     32.22
H(0)         4.313e-024
   H2             2.157e-024  2.157e-024   -23.666   -23.666     0.000     28.30
O(0)         1.177e-026
   O2             5.885e-027  5.885e-027   -26.230   -26.230     0.000     32.02

------------------------------Saturation indices-------------------------------

	Phase               SI   log IAP   log K(373 K, 701 atm)

	CH4(g)            2.82     -0.57   -3.38  CH4	 Pressure 701.1 atm, phi 0.936.
	H2(g)           -20.57    -23.67   -3.10  H2
	H2O(g)            0.17     -0.00   -0.18  H2O
	O2(g)           -22.75    -26.23   -3.48  O2


------------------
End of simulation.
------------------

--------------------------------------
Reading input data for simulation 124.
--------------------------------------

		SOLUTION 1
	 temp 100
	 pH 3 charge
	C(-4) 1 CH4(g)  2.8580e+000
	pressure  7.2110e+002
	END
-------------------------------------------
Beginning of initial solution calculations.
-------------------------------------------

Initial solution 1.	

-----------------------------Solution composition------------------------------

	Elements           Molality       Moles

	C(-4)            2.753e-001  2.753e-001  Equilibrium with CH4(g)

----------------------------Description of solution----------------------------

                                       pH  =   5.984      Charge balance
                                       pe  =   4.000    
       Specific Conductance (uS/cm, 100 oC) = 1
                          Density (g/cm3)  =   0.98528
                               Volume (L)  =   1.03312
                        Activity of water  =   0.995
                           Ionic strength  =  1.039e-006
                       Mass of water (kg)  =  1.000e+000
                 Total alkalinity (eq/kg)  =  1.025e-016
                    Total carbon (mol/kg)  =  2.753e-001
                       Total CO2 (mol/kg)  =  0.000e+000
                      Temperature (deg C)  = 100.00
                           Pressure (atm)  = 721.10
                  Electrical balance (eq)  = -1.025e-016
 Percent error, 100*(Cat-|An|)/(Cat+|An|)  =  -0.00
                               Iterations  =  11
                                  Total H  = 1.121137e+002
                                  Total O  = 5.550622e+001

----------------------------Distribution of species----------------------------

                                               Log       Log       Log    mole V
   Species          Molality    Activity  Molality  Activity     Gamma   cm3/mol

   OH-            1.039e-006  1.037e-006    -5.984    -5.984    -0.001     -8.44
   H+             1.039e-006  1.037e-006    -5.984    -5.984    -0.001      0.00
   H2O            5.551e+001  9.953e-001     1.744    -0.002     0.000     18.21
C(-4)        2.753e-001
   CH4            2.753e-001  2.753e-001    -0.560    -0.560     0.000     32.22
H(0)         4.313e-024
   H2             2.156e-024  2.156e-024   -23.666   -23.666     0.000     28.29
O(0)         1.138e-026
   O2             5.692e-027  5.692e-027   -26.245   -26.245     0.000     31.98

------------------------------Saturation indices-------------------------------

	Phase               SI   log IAP   log K(373 K, 721 atm)

	CH4(g)            2.83     -0.56   -3.39  CH4	 Pressure 721.1 atm, phi 0.944.
	H2(g)           -20.57    -23.67   -3.10  H2
	H2O(g)            0.18     -0.00   -0.18  H2O
	O2(g)           -22.76    -26.24   -3.49  O2


------------------
End of simulation.
------------------

--------------------------------------
Reading input data for simulation 125.
--------------------------------------

		SOLUTION 1
	 temp 100
	 pH 3 charge
	C(-4) 1 CH4(g)  2.8699e+000
	pressure  7.4110e+002
	END
-------------------------------------------
Beginning of initial solution calculations.
-------------------------------------------

Initial solution 1.	

-----------------------------Solution composition------------------------------

	Elements           Molality       Moles

	C(-4)            2.796e-001  2.796e-001  Equilibrium with CH4(g)

----------------------------Description of solution----------------------------

                                       pH  =   5.980      Charge balance
                                       pe  =   4.000    
       Specific Conductance (uS/cm, 100 oC) = 1
                          Density (g/cm3)  =   0.98599
                               Volume (L)  =   1.03265
                        Activity of water  =   0.995
                           Ionic strength  =  1.048e-006
                       Mass of water (kg)  =  1.000e+000
                 Total alkalinity (eq/kg)  =  8.884e-017
                    Total carbon (mol/kg)  =  2.796e-001
                       Total CO2 (mol/kg)  =  0.000e+000
                      Temperature (deg C)  = 100.00
                           Pressure (atm)  = 741.10
                  Electrical balance (eq)  = -8.884e-017
 Percent error, 100*(Cat-|An|)/(Cat+|An|)  =  -0.00
                               Iterations  =  11
                                  Total H  = 1.121308e+002
                                  Total O  = 5.550622e+001

----------------------------Distribution of species----------------------------

                                               Log       Log       Log    mole V
   Species          Molality    Activity  Molality  Activity     Gamma   cm3/mol

   OH-            1.048e-006  1.047e-006    -5.980    -5.980    -0.001     -8.50
   H+             1.048e-006  1.047e-006    -5.980    -5.980    -0.001      0.00
   H2O            5.551e+001  9.952e-001     1.744    -0.002     0.000     18.19
C(-4)        2.796e-001
   CH4            2.796e-001  2.796e-001    -0.553    -0.553     0.000     32.22
H(0)         4.312e-024
   H2             2.156e-024  2.156e-024   -23.666   -23.666     0.000     28.29
O(0)         1.101e-026
   O2             5.505e-027  5.505e-027   -26.259   -26.259     0.000     31.94

------------------------------Saturation indices-------------------------------

	Phase               SI   log IAP   log K(373 K, 741 atm)

	CH4(g)            2.85     -0.55   -3.40  CH4	 Pressure 741.1 atm, phi 0.953.
	H2(g)           -20.57    -23.67   -3.10  H2
	H2O(g)            0.18     -0.00   -0.19  H2O
	O2(g)           -22.76    -26.26   -3.50  O2


------------------
End of simulation.
------------------

--------------------------------------
Reading input data for simulation 126.
--------------------------------------

		SOLUTION 1
	 temp 100
	 pH 3 charge
	C(-4) 1 CH4(g)  2.8814e+000
	pressure  7.6110e+002
	END
-------------------------------------------
Beginning of initial solution calculations.
-------------------------------------------

Initial solution 1.	

-----------------------------Solution composition------------------------------

	Elements           Molality       Moles

	C(-4)            2.837e-001  2.837e-001  Equilibrium with CH4(g)

----------------------------Description of solution----------------------------

                                       pH  =   5.976      Charge balance
                                       pe  =   4.000    
       Specific Conductance (uS/cm, 100 oC) = 1
                          Density (g/cm3)  =   0.98670
                               Volume (L)  =   1.03218
                        Activity of water  =   0.995
                           Ionic strength  =  1.058e-006
                       Mass of water (kg)  =  1.000e+000
                 Total alkalinity (eq/kg)  =  7.669e-017
                    Total carbon (mol/kg)  =  2.837e-001
                       Total CO2 (mol/kg)  =  0.000e+000
                      Temperature (deg C)  = 100.00
                           Pressure (atm)  = 761.10
                  Electrical balance (eq)  = -7.669e-017
 Percent error, 100*(Cat-|An|)/(Cat+|An|)  =  -0.00
                               Iterations  =  11
                                  Total H  = 1.121473e+002
                                  Total O  = 5.550622e+001

----------------------------Distribution of species----------------------------

                                               Log       Log       Log    mole V
   Species          Molality    Activity  Molality  Activity     Gamma   cm3/mol

   OH-            1.058e-006  1.056e-006    -5.976    -5.976    -0.001     -8.55
   H+             1.058e-006  1.056e-006    -5.976    -5.976    -0.001      0.00
   H2O            5.551e+001  9.952e-001     1.744    -0.002     0.000     18.18
C(-4)        2.837e-001
   CH4            2.837e-001  2.837e-001    -0.547    -0.547     0.000     32.22
H(0)         4.312e-024
   H2             2.156e-024  2.156e-024   -23.666   -23.666     0.000     28.28
O(0)         1.065e-026
   O2             5.323e-027  5.323e-027   -26.274   -26.274     0.000     31.90

------------------------------Saturation indices-------------------------------

	Phase               SI   log IAP   log K(373 K, 761 atm)

	CH4(g)            2.86     -0.55   -3.41  CH4	 Pressure 761.0 atm, phi 0.962.
	H2(g)           -20.57    -23.67   -3.10  H2
	H2O(g)            0.19     -0.00   -0.19  H2O
	O2(g)           -22.77    -26.27   -3.51  O2


------------------
End of simulation.
------------------

--------------------------------------
Reading input data for simulation 127.
--------------------------------------

		SOLUTION 1
	 temp 100
	 pH 3 charge
	C(-4) 1 CH4(g)  2.8927e+000
	pressure  7.8110e+002
	END
-------------------------------------------
Beginning of initial solution calculations.
-------------------------------------------

Initial solution 1.	

-----------------------------Solution composition------------------------------

	Elements           Molality       Moles

	C(-4)            2.879e-001  2.879e-001  Equilibrium with CH4(g)

----------------------------Description of solution----------------------------

                                       pH  =   5.972      Charge balance
                                       pe  =   4.000    
       Specific Conductance (uS/cm, 100 oC) = 1
                          Density (g/cm3)  =   0.98741
                               Volume (L)  =   1.03171
                        Activity of water  =   0.995
                           Ionic strength  =  1.068e-006
                       Mass of water (kg)  =  1.000e+000
                 Total alkalinity (eq/kg)  =  6.603e-017
                    Total carbon (mol/kg)  =  2.879e-001
                       Total CO2 (mol/kg)  =  0.000e+000
                      Temperature (deg C)  = 100.00
                           Pressure (atm)  = 781.10
                  Electrical balance (eq)  = -6.603e-017
 Percent error, 100*(Cat-|An|)/(Cat+|An|)  =  -0.00
                               Iterations  =  11
                                  Total H  = 1.121639e+002
                                  Total O  = 5.550622e+001

----------------------------Distribution of species----------------------------

                                               Log       Log       Log    mole V
   Species          Molality    Activity  Molality  Activity     Gamma   cm3/mol

   OH-            1.068e-006  1.066e-006    -5.972    -5.972    -0.001     -8.60
   H+             1.068e-006  1.066e-006    -5.972    -5.972    -0.001      0.00
   H2O            5.551e+001  9.951e-001     1.744    -0.002     0.000     18.16
C(-4)        2.879e-001
   CH4            2.879e-001  2.879e-001    -0.541    -0.541     0.000     32.22
H(0)         4.312e-024
   H2             2.156e-024  2.156e-024   -23.666   -23.666     0.000     28.28
O(0)         1.030e-026
   O2             5.148e-027  5.148e-027   -26.288   -26.288     0.000     31.86

------------------------------Saturation indices-------------------------------

	Phase               SI   log IAP   log K(373 K, 781 atm)

	CH4(g)            2.88     -0.54   -3.42  CH4	 Pressure 781.1 atm, phi 0.971.
	H2(g)           -20.57    -23.67   -3.10  H2
	H2O(g)            0.19     -0.00   -0.20  H2O
	O2(g)           -22.77    -26.29   -3.52  O2


------------------
End of simulation.
------------------

--------------------------------------
Reading input data for simulation 128.
--------------------------------------

		SOLUTION 1
	 temp 100
	 pH 3 charge
	C(-4) 1 CH4(g)  2.9037e+000
	pressure  8.0110e+002
	END
-------------------------------------------
Beginning of initial solution calculations.
-------------------------------------------

Initial solution 1.	

-----------------------------Solution composition------------------------------

	Elements           Molality       Moles

	C(-4)            2.919e-001  2.919e-001  Equilibrium with CH4(g)

----------------------------Description of solution----------------------------

                                       pH  =   5.968      Charge balance
                                       pe  =   4.000    
       Specific Conductance (uS/cm, 100 oC) = 1
                          Density (g/cm3)  =   0.98811
                               Volume (L)  =   1.03125
                        Activity of water  =   0.995
                           Ionic strength  =  1.077e-006
                       Mass of water (kg)  =  1.000e+000
                 Total alkalinity (eq/kg)  =  5.665e-017
                    Total carbon (mol/kg)  =  2.919e-001
                       Total CO2 (mol/kg)  =  0.000e+000
                      Temperature (deg C)  = 100.00
                           Pressure (atm)  = 801.10
                  Electrical balance (eq)  = -5.665e-017
 Percent error, 100*(Cat-|An|)/(Cat+|An|)  =  -0.00
                               Iterations  =  11
                                  Total H  = 1.121802e+002
                                  Total O  = 5.550622e+001

----------------------------Distribution of species----------------------------

                                               Log       Log       Log    mole V
   Species          Molality    Activity  Molality  Activity     Gamma   cm3/mol

   OH-            1.077e-006  1.076e-006    -5.968    -5.968    -0.001     -8.65
   H+             1.077e-006  1.076e-006    -5.968    -5.968    -0.001      0.00
   H2O            5.551e+001  9.950e-001     1.744    -0.002     0.000     18.15
C(-4)        2.919e-001
   CH4            2.919e-001  2.919e-001    -0.535    -0.535     0.000     32.22
H(0)         4.312e-024
   H2             2.156e-024  2.156e-024   -23.666   -23.666     0.000     28.27
O(0)         9.955e-027
   O2             4.978e-027  4.978e-027   -26.303   -26.303     0.000     31.82

------------------------------Saturation indices-------------------------------

	Phase               SI   log IAP   log K(373 K, 801 atm)

	CH4(g)            2.90     -0.53   -3.43  CH4	 Pressure 801.1 atm, phi 0.981.
	H2(g)           -20.57    -23.67   -3.10  H2
	H2O(g)            0.20     -0.00   -0.20  H2O
	O2(g)           -22.78    -26.30   -3.53  O2


------------------
End of simulation.
------------------

--------------------------------------
Reading input data for simulation 129.
--------------------------------------

	END
------------------
End of simulation.
------------------

--------------------------------------
Reading input data for simulation 130.
--------------------------------------

-------------------------------
End of Run after 0.124 Seconds.
-------------------------------

