WARNING: Database file from DATABASE keyword is used; command line argument ignored.
   Input file: co2
  Output file: co2.out
Database file: ../database/iso.dat

------------------
Reading data base.
------------------

	SOLUTION_MASTER_SPECIES
	SOLUTION_SPECIES
	PHASES
	EXCHANGE_MASTER_SPECIES
	EXCHANGE_SPECIES
	SURFACE_MASTER_SPECIES
	SURFACE_SPECIES
	SOLUTION_MASTER_SPECIES
	ISOTOPES
	ISOTOPE_RATIOS
	ISOTOPE_ALPHAS
	NAMED_EXPRESSIONS
	CALCULATE_VALUES
	CALCULATE_VALUES
	SOLUTION_SPECIES
	PHASES
------------------------------------
Reading input data for simulation 1.
------------------------------------

	DATABASE ../database/iso.dat
	SOLUTION 1
		pH	2
		C	1	CO2(g)	-3.5
		[18O]	0
		D	0
		[13C]	-7
		Cl	1	charge
	END
-------------------------------------------
Beginning of initial solution calculations.
-------------------------------------------

Initial solution 1.	

-----------------------------------Isotopes------------------------------------

   Isotope	    Molality	       Moles	       Ratio	       Units

         H	1.11028e+002	1.11028e+002
         D	1.72937e-002	1.72937e-002	0.00000e+000	      permil
         T	0.00000e+000	0.00000e+000	0.00000e+000	          TU

         C	1.06216e-005	1.06216e-005
     [13C]	1.17920e-007	1.17920e-007	-7.00000e+000	      permil
     [14C]	0.00000e+000	0.00000e+000	0.00000e+000	         pmc

         O	5.54061e+001	5.54061e+001
     [18O]	1.11100e-001	1.11100e-001	0.00000e+000	      permil

-----------------------------Solution composition------------------------------

	Elements           Molality       Moles

	C                1.074e-005  1.074e-005  Equilibrium with CO2(g)
	Cl               1.099e-002  1.099e-002  Charge balance

----------------------------Description of solution----------------------------

                                       pH  =   2.000    
                                       pe  =   4.000    
                        Activity of water  =   1.000
                           Ionic strength  =  1.099e-002
                       Mass of water (kg)  =  1.000e+000
                 Total alkalinity (eq/kg)  = -1.099e-002
                       Total CO2 (mol/kg)  =  1.074e-005
                      Temperature (deg C)  =  25.00
                  Electrical balance (eq)  = -1.357e-016
 Percent error, 100*(Cat-|An|)/(Cat+|An|)  =  -0.00
                               Iterations  =   6
                                  Total H  = 1.110281e+002
                                  Total O  = 5.540612e+001

----------------------------Distribution of species----------------------------

                                               Log       Log       Log    mole V
   Species          Molality    Activity  Molality  Activity     Gamma   cm3/mol

   H3O+           1.099e-002  1.000e-002    -1.959    -2.000    -0.041     (0)  
   OH-            1.116e-012  1.000e-012   -11.952   -12.000    -0.048     (0)  
   H2O            5.551e+001  9.996e-001     1.744    -0.000     0.000     18.07
C(-4)        2.648e-029
   CH4            2.648e-029  2.654e-029   -28.577   -28.576     0.001     (0)  
C(4)         1.074e-005
   CO2            1.074e-005  1.077e-005    -4.969    -4.968     0.001     (0)  
   HCO3-          5.327e-010  4.784e-010    -9.274    -9.320    -0.047     (0)  
   CO3-2          3.449e-018  2.243e-018   -17.462   -17.649    -0.187     (0)  
Cl           1.099e-002
   Cl-            1.099e-002  9.846e-003    -1.959    -2.007    -0.048     (0)  
H(0)         1.413e-015
   H2             7.067e-016  7.085e-016   -15.151   -15.150     0.001     (0)  
O(0)         0.000e+000
   O2             0.000e+000  0.000e+000   -62.082   -62.081     0.001     (0)  

------------------------------Saturation indices-------------------------------

	Phase               SI   log IAP   log K(298 K,   1 atm)

	CH4(g)          -25.72    -28.58   -2.86  CH4
	CO2(g)           -3.50     -4.97   -1.47  CO2
	H2(g)           -12.00    -15.15   -3.15  H2
	H2O(g)           -1.51     -0.00    1.51  H2O
	O2(g)           -59.19    -62.08   -2.89  O2


------------------
End of simulation.
------------------

------------------------------------
Reading input data for simulation 2.
------------------------------------

	USE solution 1
	REACTION
		NaCl	0
		0
	END
-----------------------------------------
Beginning of batch-reaction calculations.
-----------------------------------------

Reaction step 1.

Using solution 1.	
Using reaction 1.	

Reaction 1.	

	 0.000e+000 moles of the following reaction have been added:

	                 Relative
	Reactant            moles

	NaCl                 0.00000

	                 Relative
	Element             moles
	Cl                   0.00000
	Na                   0.00000

--------------------------------Isotope Ratios---------------------------------

            Isotope Ratio	       Ratio	    Input Units

     R(D)                	1.55760e-004	   -7.2786e-010  permil    
     R(18O)              	2.00520e-003	    2.8622e-010  permil    
     R(13C)              	1.11019e-002	             -7  permil    
     R(D) H2O(l)         	1.55758e-004	      -0.012365  permil    
     R(18O) H2O(l)       	2.00519e-003	     -0.0045915  permil    
     R(D) OH-            	3.70884e-005	        -761.89  permil    
     R(18O) OH-          	1.93085e-003	        -37.077  permil    
     R(D) H3O+           	1.62248e-004	         41.652  permil    
     R(18O) H3O+         	2.05156e-003	         23.119  permil    
     R(D) H2(aq)         	1.55758e-004	      -0.012365  permil    
     R(13C) CO2(aq)      	1.11019e-002	        -7.0004  permil    
     R(18O) CO2(aq)      	2.08958e-003	         42.079  permil    
     R(D) HCO3-          	1.55758e-004	      -0.012365  permil    
     R(18O) HCO3-        	2.00519e-003	     -0.0045915  permil    
     R(13C) HCO3-        	1.11985e-002	         1.6385  permil    
     R(18O) CO3-2        	2.00519e-003	     -0.0046118  permil    
     R(13C) CO3-2        	1.11824e-002	        0.20109  permil    
     R(D) CH4(aq)        	1.55758e-004	      -0.012365  permil    
     R(13C) CH4(aq)      	1.11019e-002	        -7.0004  permil    

--------------------------------Isotope Alphas---------------------------------

                                                              1000ln(Alpha)
                                                         ----------------------
     Isotope Ratio                   Solution alpha      Solution        25.0 C

Alpha D OH-/H2O(l)                          0.23812         -1435         -1435
Alpha 18O OH-/H2O(l)                        0.96293       -37.777       -37.777
Alpha D H3O+/H2O(l)                          1.0417         40.82         40.82
Alpha 18O H3O+/H2O(l)                        1.0231         22.86         22.86
Alpha D H2(aq)/H2O(l)                             1  -2.1094e-012             0
Alpha 18O CO2(aq)/H2O(l)                     1.0421        41.223        41.223
Alpha D HCO3-/H2O(l)                              1   2.2602e-009             0
Alpha 18O HCO3-/H2O(l)                            1             0             0
Alpha 13C HCO3-/CO2(aq)                      1.0087        8.6622        8.6622
Alpha 18O CO3-2/H2O(l)                            1  -2.0317e-005             0
Alpha 13C CO3-2/CO2(aq)                      1.0073        7.2261        7.2261
Alpha D CH4(aq)/H2O(l)                            1  -3.7541e-009             0
Alpha 13C CH4(aq)/CO2(aq)                         1  -2.3315e-012             0

-----------------------------Solution composition------------------------------

	Elements           Molality       Moles

	C                1.066e-005  1.062e-005
	Cl               1.102e-002  1.099e-002
	D                1.735e-002  1.729e-002
	[13C]            1.183e-007  1.179e-007
	[18O]            1.115e-001  1.111e-001

----------------------------Description of solution----------------------------

                                       pH  =   2.000      Charge balance
                                       pe  =   3.592      Adjusted to redox equilibrium
                        Activity of water  =   0.997
                           Ionic strength  =  1.102e-002
                       Mass of water (kg)  =  9.968e-001
                 Total alkalinity (eq/kg)  = -1.102e-002
                       Total CO2 (mol/kg)  =  1.066e-005
                      Temperature (deg C)  =  25.00
                  Electrical balance (eq)  = -1.163e-016
 Percent error, 100*(Cat-|An|)/(Cat+|An|)  =  -0.00
                               Iterations  =   7
                                  Total H  = 1.110281e+002
                                  Total O  = 5.540612e+001

----------------------------Distribution of species----------------------------

                                               Log       Log       Log    mole V
   Species          Molality    Activity  Molality  Activity     Gamma   cm3/mol

   H3O+           1.099e-002  1.001e-002    -1.959    -2.000    -0.041     (0)  
   OH-            1.111e-012  9.954e-013   -11.954   -12.002    -0.048     (0)  
   H2O            5.556e+001  9.974e-001     1.745    -0.001     0.000     18.07
C(-4)        4.895e-026
   CH4            4.892e-026  4.904e-026   -25.311   -25.309     0.001     (0)  
   CH3D           3.048e-029  3.056e-029   -28.516   -28.515     0.001     (0)  
   CH2D2          7.121e-033  7.139e-033   -32.147   -32.146     0.001     (0)  
   CHD3           7.394e-037  7.413e-037   -36.131   -36.130     0.001     (0)  
   CD4            0.000e+000  0.000e+000   -40.541   -40.540     0.001     (0)  
C(4)         1.066e-005
   CO2            1.061e-005  1.064e-005    -4.974    -4.973     0.001     (0)  
   CO[18O]        4.434e-008  4.446e-008    -7.353    -7.352     0.001     (0)  
   HCO3-          5.238e-010  4.703e-010    -9.281    -9.328    -0.047     (0)  
   C[18O]2        4.633e-011  4.645e-011   -10.334   -10.333     0.001     (0)  
   HCO[18O]O-     1.050e-012  9.431e-013   -11.979   -12.025    -0.047     (0)  
   HC[18O]O2-     1.050e-012  9.431e-013   -11.979   -12.025    -0.047     (0)  
   HCO2[18O]-     1.050e-012  9.431e-013   -11.979   -12.025    -0.047     (0)  
   DCO3-          8.159e-014  7.326e-014   -13.088   -13.135    -0.047     (0)  
   HCO[18O]2-     2.106e-015  1.891e-015   -14.677   -14.723    -0.047     (0)  
   HC[18O]O[18O]-  2.106e-015  1.891e-015   -14.677   -14.723    -0.047     (0)  
   HC[18O]2O-     2.106e-015  1.891e-015   -14.677   -14.723    -0.047     (0)  
   DC[18O]O2-     1.636e-016  1.469e-016   -15.786   -15.833    -0.047     (0)  
   DCO[18O]O-     1.636e-016  1.469e-016   -15.786   -15.833    -0.047     (0)  
   DCO2[18O]-     1.636e-016  1.469e-016   -15.786   -15.833    -0.047     (0)  
   HC[18O]3-      4.223e-018  3.792e-018   -17.374   -17.421    -0.047     (0)  
   CO3-2          3.384e-018  2.199e-018   -17.471   -17.658    -0.187     (0)  
   DCO[18O]2-     3.280e-019  2.946e-019   -18.484   -18.531    -0.047     (0)  
   DC[18O]O[18O]-  3.280e-019  2.946e-019   -18.484   -18.531    -0.047     (0)  
   DC[18O]2O-     3.280e-019  2.946e-019   -18.484   -18.531    -0.047     (0)  
   CO2[18O]-2     2.035e-020  1.323e-020   -19.691   -19.878    -0.187     (0)  
   DC[18O]3-      6.578e-022  5.906e-022   -21.182   -21.229    -0.047     (0)  
   CO[18O]2-2     4.081e-023  2.653e-023   -22.389   -22.576    -0.187     (0)  
   C[18O]3-2      2.728e-026  1.773e-026   -25.564   -25.751    -0.187     (0)  
Cl           1.102e-002
   Cl-            1.102e-002  9.876e-003    -1.958    -2.005    -0.048     (0)  
D(0)         1.446e-018
   HD             1.446e-018  1.450e-018   -17.840   -17.839     0.001     (0)  
   D2             1.126e-022  1.129e-022   -21.948   -21.947     0.001     (0)  
D(1)         1.735e-002
   HDO            1.731e-002  3.107e-004    -1.762    -3.508    -1.746     (0)  
   HD[18O]        3.470e-005  6.230e-007    -4.460    -6.205    -1.746     (0)  
   H2DO+          5.351e-006  4.870e-006    -5.272    -5.312    -0.041     (0)  
   D2O            1.348e-006  2.420e-008    -5.870    -7.616    -1.746     (0)  
   H2D[18O]+      1.098e-008  9.991e-009    -7.960    -8.000    -0.041     (0)  
   D2[18O]        2.703e-009  4.852e-011    -8.568   -10.314    -1.746     (0)  
   HD2O+          8.681e-010  7.902e-010    -9.061    -9.102    -0.041     (0)  
   HD2[18O]+      1.781e-012  1.621e-012   -11.749   -11.790    -0.041     (0)  
   DCO3-          8.159e-014  7.326e-014   -13.088   -13.135    -0.047     (0)  
   D3O+           4.695e-014  4.273e-014   -13.328   -13.369    -0.041     (0)  
   D[13C]O3-      9.137e-016  8.204e-016   -15.039   -15.086    -0.047     (0)  
   DCO2[18O]-     1.636e-016  1.469e-016   -15.786   -15.833    -0.047     (0)  
   DCO[18O]O-     1.636e-016  1.469e-016   -15.786   -15.833    -0.047     (0)  
   DC[18O]O2-     1.636e-016  1.469e-016   -15.786   -15.833    -0.047     (0)  
   D3[18O]+       9.632e-017  8.767e-017   -16.016   -16.057    -0.041     (0)  
   OD-            4.121e-017  3.692e-017   -16.385   -16.433    -0.048     (0)  
   D[13C]O[18O]O-  1.832e-018  1.645e-018   -17.737   -17.784    -0.047     (0)  
   D[13C]O2[18O]-  1.832e-018  1.645e-018   -17.737   -17.784    -0.047     (0)  
   D[13C][18O]O2-  1.832e-018  1.645e-018   -17.737   -17.784    -0.047     (0)  
   DCO[18O]2-     3.280e-019  2.946e-019   -18.484   -18.531    -0.047     (0)  
   DC[18O]2O-     3.280e-019  2.946e-019   -18.484   -18.531    -0.047     (0)  
   DC[18O]O[18O]-  3.280e-019  2.946e-019   -18.484   -18.531    -0.047     (0)  
   [18O]D-        7.957e-020  7.128e-020   -19.099   -19.147    -0.048     (0)  
   D[13C][18O]2O-  3.674e-021  3.299e-021   -20.435   -20.482    -0.047     (0)  
   D[13C][18O]O[18O]-  3.674e-021  3.299e-021   -20.435   -20.482    -0.047     (0)  
   D[13C]O[18O]2-  3.674e-021  3.299e-021   -20.435   -20.482    -0.047     (0)  
   DC[18O]3-      6.578e-022  5.906e-022   -21.182   -21.229    -0.047     (0)  
   D[13C][18O]3-  7.366e-024  6.614e-024   -23.133   -23.180    -0.047     (0)  
   CH3D           3.048e-029  3.056e-029   -28.516   -28.515     0.001     (0)  
   [13C]H3D       3.384e-031  3.392e-031   -30.471   -30.470     0.001     (0)  
   CH2D2          7.121e-033  7.139e-033   -32.147   -32.146     0.001     (0)  
   [13C]H2D2      7.906e-035  7.926e-035   -34.102   -34.101     0.001     (0)  
   CHD3           7.394e-037  7.413e-037   -36.131   -36.130     0.001     (0)  
   [13C]HD3       8.209e-039  8.230e-039   -38.086   -38.085     0.001     (0)  
   CD4            0.000e+000  0.000e+000   -40.541   -40.540     0.001     (0)  
   [13C]D4        0.000e+000  0.000e+000   -42.495   -42.494     0.001     (0)  
H(0)         9.287e-015
   H2             4.642e-015  4.654e-015   -14.333   -14.332     0.001     (0)  
   HD             1.446e-018  1.450e-018   -17.840   -17.839     0.001     (0)  
O(0)         0.000e+000
   O2             0.000e+000  0.000e+000   -63.719   -63.718     0.001     (0)  
   O[18O]         0.000e+000  0.000e+000   -66.116   -66.115     0.001     (0)  
[13C](-4)    5.434e-028
   [13C]H4        5.431e-028  5.445e-028   -27.265   -27.264     0.001     (0)  
   [13C]H3D       3.384e-031  3.392e-031   -30.471   -30.470     0.001     (0)  
   [13C]H2D2      7.906e-035  7.926e-035   -34.102   -34.101     0.001     (0)  
   [13C]HD3       8.209e-039  8.230e-039   -38.086   -38.085     0.001     (0)  
   [13C]D4        0.000e+000  0.000e+000   -42.495   -42.494     0.001     (0)  
[13C](4)     1.183e-007
   [13C]O2        1.178e-007  1.181e-007    -6.929    -6.928     0.001     (0)  
   [13C]O[18O]    4.923e-010  4.936e-010    -9.308    -9.307     0.001     (0)  
   H[13C]O3-      5.866e-012  5.267e-012   -11.232   -11.278    -0.047     (0)  
   [13C][18O]2    5.144e-013  5.157e-013   -12.289   -12.288     0.001     (0)  
   H[13C]O2[18O]-  1.176e-014  1.056e-014   -13.930   -13.976    -0.047     (0)  
   H[13C][18O]O2-  1.176e-014  1.056e-014   -13.930   -13.976    -0.047     (0)  
   H[13C]O[18O]O-  1.176e-014  1.056e-014   -13.930   -13.976    -0.047     (0)  
   D[13C]O3-      9.137e-016  8.204e-016   -15.039   -15.086    -0.047     (0)  
   H[13C][18O]O[18O]-  2.359e-017  2.118e-017   -16.627   -16.674    -0.047     (0)  
   H[13C][18O]2O-  2.359e-017  2.118e-017   -16.627   -16.674    -0.047     (0)  
   H[13C]O[18O]2-  2.359e-017  2.118e-017   -16.627   -16.674    -0.047     (0)  
   D[13C]O[18O]O-  1.832e-018  1.645e-018   -17.737   -17.784    -0.047     (0)  
   D[13C][18O]O2-  1.832e-018  1.645e-018   -17.737   -17.784    -0.047     (0)  
   D[13C]O2[18O]-  1.832e-018  1.645e-018   -17.737   -17.784    -0.047     (0)  
   H[13C][18O]3-  4.729e-020  4.247e-020   -19.325   -19.372    -0.047     (0)  
   [13C]O3-2      3.784e-020  2.459e-020   -19.422   -19.609    -0.187     (0)  
   D[13C][18O]O[18O]-  3.674e-021  3.299e-021   -20.435   -20.482    -0.047     (0)  
   D[13C]O[18O]2-  3.674e-021  3.299e-021   -20.435   -20.482    -0.047     (0)  
   D[13C][18O]2O-  3.674e-021  3.299e-021   -20.435   -20.482    -0.047     (0)  
   [13C]O2[18O]-2  2.276e-022  1.480e-022   -21.643   -21.830    -0.187     (0)  
   D[13C][18O]3-  7.366e-024  6.614e-024   -23.133   -23.180    -0.047     (0)  
   [13C]O[18O]2-2  4.564e-025  2.967e-025   -24.341   -24.528    -0.187     (0)  
   [13C][18O]3-2  3.051e-028  1.983e-028   -27.516   -27.703    -0.187     (0)  
[18O](-2)    1.115e-001
   H2[18O]        1.114e-001  2.000e-003    -0.953    -2.699    -1.746     (0)  
   HD[18O]        3.470e-005  6.230e-007    -4.460    -6.205    -1.746     (0)  
   H3[18O]+       2.255e-005  2.053e-005    -4.647    -4.688    -0.041     (0)  
   CO[18O]        4.434e-008  4.446e-008    -7.353    -7.352     0.001     (0)  
   H2D[18O]+      1.098e-008  9.991e-009    -7.960    -8.000    -0.041     (0)  
   D2[18O]        2.703e-009  4.852e-011    -8.568   -10.314    -1.746     (0)  
   [13C]O[18O]    4.923e-010  4.936e-010    -9.308    -9.307     0.001     (0)  
   C[18O]2        4.633e-011  4.645e-011   -10.334   -10.333     0.001     (0)  
   HD2[18O]+      1.781e-012  1.621e-012   -11.749   -11.790    -0.041     (0)  
   HC[18O]O2-     1.050e-012  9.431e-013   -11.979   -12.025    -0.047     (0)  
   HCO[18O]O-     1.050e-012  9.431e-013   -11.979   -12.025    -0.047     (0)  
   HCO2[18O]-     1.050e-012  9.431e-013   -11.979   -12.025    -0.047     (0)  
   [13C][18O]2    5.144e-013  5.157e-013   -12.289   -12.288     0.001     (0)  
   H[13C]O2[18O]-  1.176e-014  1.056e-014   -13.930   -13.976    -0.047     (0)  
   H[13C][18O]O2-  1.176e-014  1.056e-014   -13.930   -13.976    -0.047     (0)  
   H[13C]O[18O]O-  1.176e-014  1.056e-014   -13.930   -13.976    -0.047     (0)  
   [18O]H-        2.145e-015  1.922e-015   -14.668   -14.716    -0.048     (0)  
   HCO[18O]2-     2.106e-015  1.891e-015   -14.677   -14.723    -0.047     (0)  
   HC[18O]O[18O]-  2.106e-015  1.891e-015   -14.677   -14.723    -0.047     (0)  
   HC[18O]2O-     2.106e-015  1.891e-015   -14.677   -14.723    -0.047     (0)  
   DC[18O]O2-     1.636e-016  1.469e-016   -15.786   -15.833    -0.047     (0)  
   DCO2[18O]-     1.636e-016  1.469e-016   -15.786   -15.833    -0.047     (0)  
   DCO[18O]O-     1.636e-016  1.469e-016   -15.786   -15.833    -0.047     (0)  
   D3[18O]+       9.632e-017  8.767e-017   -16.016   -16.057    -0.041     (0)  
   H[13C][18O]2O-  2.359e-017  2.118e-017   -16.627   -16.674    -0.047     (0)  
   H[13C]O[18O]2-  2.359e-017  2.118e-017   -16.627   -16.674    -0.047     (0)  
   H[13C][18O]O[18O]-  2.359e-017  2.118e-017   -16.627   -16.674    -0.047     (0)  
   HC[18O]3-      4.223e-018  3.792e-018   -17.374   -17.421    -0.047     (0)  
   D[13C][18O]O2-  1.832e-018  1.645e-018   -17.737   -17.784    -0.047     (0)  
   D[13C]O[18O]O-  1.832e-018  1.645e-018   -17.737   -17.784    -0.047     (0)  
   D[13C]O2[18O]-  1.832e-018  1.645e-018   -17.737   -17.784    -0.047     (0)  
   DC[18O]2O-     3.280e-019  2.946e-019   -18.484   -18.531    -0.047     (0)  
   DCO[18O]2-     3.280e-019  2.946e-019   -18.484   -18.531    -0.047     (0)  
   DC[18O]O[18O]-  3.280e-019  2.946e-019   -18.484   -18.531    -0.047     (0)  
   [18O]D-        7.957e-020  7.128e-020   -19.099   -19.147    -0.048     (0)  
   H[13C][18O]3-  4.729e-020  4.247e-020   -19.325   -19.372    -0.047     (0)  
   CO2[18O]-2     2.035e-020  1.323e-020   -19.691   -19.878    -0.187     (0)  
   D[13C][18O]O[18O]-  3.674e-021  3.299e-021   -20.435   -20.482    -0.047     (0)  
   D[13C]O[18O]2-  3.674e-021  3.299e-021   -20.435   -20.482    -0.047     (0)  
   D[13C][18O]2O-  3.674e-021  3.299e-021   -20.435   -20.482    -0.047     (0)  
   DC[18O]3-      6.578e-022  5.906e-022   -21.182   -21.229    -0.047     (0)  
   [13C]O2[18O]-2  2.276e-022  1.480e-022   -21.643   -21.830    -0.187     (0)  
   CO[18O]2-2     4.081e-023  2.653e-023   -22.389   -22.576    -0.187     (0)  
   D[13C][18O]3-  7.366e-024  6.614e-024   -23.133   -23.180    -0.047     (0)  
   [13C]O[18O]2-2  4.564e-025  2.967e-025   -24.341   -24.528    -0.187     (0)  
   C[18O]3-2      2.728e-026  1.773e-026   -25.564   -25.751    -0.187     (0)  
   [13C][18O]3-2  3.051e-028  1.983e-028   -27.516   -27.703    -0.187     (0)  
[18O](0)     0.000e+000
   O[18O]         0.000e+000  0.000e+000   -66.116   -66.115     0.001     (0)  
   [18O]2         0.000e+000  0.000e+000   -69.115   -69.114     0.001     (0)  

------------------------------Saturation indices-------------------------------

	Phase               SI   log IAP   log K(298 K,   1 atm)

	[13C][18O]2(g)  -10.82    -12.32   -1.50  [13C][18O]2
	[13C]D4(g)      -39.63    -42.49   -2.86  [13C]D4
	[13C]H2D2(g)    -31.24    -34.88   -3.64  [13C]H2D2
	[13C]H3D(g)     -27.61    -31.07   -3.46  [13C]H3D
	[13C]H4(g)      -24.40    -27.26   -2.86  [13C]H4
	[13C]HD3(g)     -35.22    -38.69   -3.46  [13C]HD3
	[13C]O2(g)       -5.46     -6.93   -1.47  [13C]O2
	[13C]O[18O](g)   -7.84     -9.63   -1.79  [13C]O[18O]
	[18O]2(g)       -66.82    -69.11   -2.29  [18O]2
	C[18O]2(g)       -8.87    -10.37   -1.50  C[18O]2
	CD4(g)          -37.68    -40.54   -2.86  CD4
	CH2D2(g)        -29.29    -32.92   -3.64  CH2D2
	CH3D(g)         -25.65    -29.12   -3.46  CH3D
	CH4(g)          -22.45    -25.31   -2.86  CH4
	CHD3(g)         -33.27    -36.73   -3.46  CHD3
	CO2(g)           -3.51     -4.97   -1.47  CO2
	CO[18O](g)       -5.88     -7.67   -1.79  CO[18O]
	D2(g)           -18.80    -21.95   -3.15  D2
	D2[18O](g)      -11.89    -10.31    1.58  D2[18O]
	D2O(g)           -9.19     -7.62    1.58  D2O
	H2(g)           -11.18    -14.33   -3.15  H2
	H2[18O](g)       -4.21     -2.70    1.51  H2[18O]
	H2O(g)           -1.51     -0.00    1.51  H2O
	HD(g)           -14.69    -18.14   -3.45  HD
	HD[18O](g)       -7.75     -6.51    1.25  HD[18O]
	HDO(g)           -5.05     -3.81    1.24  HDO
	O2(g)           -60.83    -63.72   -2.89  O2
	O[18O](g)       -63.52    -66.42   -2.89  O[18O]


------------------
End of simulation.
------------------

------------------------------------
Reading input data for simulation 3.
------------------------------------

	USE solution 1
	GAS_PHASE
		volume	.000001
		fixed_volume
		CO2(g)			0
		CO[18O](g)		0
		C[18O]2(g)		0
		[13C]O2(g)		0
		[13C]O[18O](g)		0
		[13C][18O]2(g)		0
		H2O(g)			0
		HDO(g)			0
		D2O(g)			0
		H2[18O](g)		0
		HD[18O](g)		0
		D2[18O](g)		0
	END
-----------------------------------------
Beginning of batch-reaction calculations.
-----------------------------------------

Reaction step 1.

Using solution 1.	
Using gas phase 1.	

-----------------------------------Gas phase-----------------------------------

Total pressure:  0.03      atmospheres 
    Gas volume:  1.00e-006 liters
  Molar volume:  7.84e+002 liters/mole

                                                        Moles in gas
                                            ----------------------------------
Component                log P           P     Initial       Final       Delta

CO2(g)                   -3.51  3.125e-004  0.000e+000  1.277e-011  1.277e-011
CO[18O](g)               -5.88  1.304e-006  0.000e+000  5.331e-014  5.331e-014
C[18O]2(g)               -8.87  1.361e-009  0.000e+000  5.564e-017  5.564e-017
D2O(g)                   -9.19  6.419e-010  0.000e+000  2.624e-017  2.624e-017
D2[18O](g)              -11.89  1.275e-012  0.000e+000  5.212e-020  5.212e-020
H2O(g)                   -1.51  3.082e-002  0.000e+000  1.260e-009  1.260e-009
H2[18O](g)               -4.21  6.123e-005  0.000e+000  2.503e-012  2.503e-012
HDO(g)                   -5.05  8.896e-006  0.000e+000  3.636e-013  3.636e-013
HD[18O](g)               -7.75  1.767e-008  0.000e+000  7.223e-016  7.223e-016
[13C]O2(g)               -5.46  3.472e-006  0.000e+000  1.419e-013  1.419e-013
[13C]O[18O](g)           -7.84  1.449e-008  0.000e+000  5.924e-016  5.924e-016
[13C][18O]2(g)          -10.82  1.513e-011  0.000e+000  6.183e-019  6.183e-019

--------------------------------Isotope Ratios---------------------------------

            Isotope Ratio	       Ratio	    Input Units

     R(D)                	1.55760e-004	    9.4103e-010  permil    
     R(18O)              	2.00520e-003	    4.9005e-010  permil    
     R(13C)              	1.11019e-002	             -7  permil    
     R(D) H2O(l)         	1.55758e-004	      -0.012365  permil    
     R(18O) H2O(l)       	2.00519e-003	     -0.0045915  permil    
     R(D) OH-            	3.70884e-005	        -761.89  permil    
     R(18O) OH-          	1.93085e-003	        -37.077  permil    
     R(D) H3O+           	1.62248e-004	         41.652  permil    
     R(18O) H3O+         	2.05156e-003	         23.119  permil    
     R(D) H2(aq)         	1.55758e-004	      -0.012365  permil    
     R(13C) CO2(aq)      	1.11019e-002	        -7.0004  permil    
     R(18O) CO2(aq)      	2.08958e-003	         42.079  permil    
     R(D) HCO3-          	1.55758e-004	      -0.012365  permil    
     R(18O) HCO3-        	2.00519e-003	     -0.0045915  permil    
     R(13C) HCO3-        	1.11985e-002	         1.6385  permil    
     R(18O) CO3-2        	2.00519e-003	     -0.0046202  permil    
     R(13C) CO3-2        	1.11824e-002	        0.20108  permil    
     R(D) CH4(aq)        	1.55758e-004	      -0.012365  permil    
     R(13C) CH4(aq)      	1.11019e-002	        -7.0004  permil    
     R(D) H2O(g)         	1.44308e-004	        -73.525  permil    
     R(18O) H2O(g)       	1.98657e-003	        -9.2911  permil    
     R(18O) CO2(g)       	2.08734e-003	         40.963  permil    
     R(13C) CO2(g)       	1.11113e-002	        -6.1668  permil    

--------------------------------Isotope Alphas---------------------------------

                                                              1000ln(Alpha)
                                                         ----------------------
     Isotope Ratio                   Solution alpha      Solution        25.0 C

Alpha D OH-/H2O(l)                          0.23812         -1435         -1435
Alpha 18O OH-/H2O(l)                        0.96293       -37.777       -37.777
Alpha D H3O+/H2O(l)                          1.0417         40.82         40.82
Alpha 18O H3O+/H2O(l)                        1.0231         22.86         22.86
Alpha D H2(aq)/H2O(l)                             1  -1.5543e-012             0
Alpha 18O CO2(aq)/H2O(l)                     1.0421        41.223        41.223
Alpha 13C CO2(aq)/CO2(g)                    0.99916      -0.83913      -0.83913
Alpha D HCO3-/H2O(l)                              1   2.2602e-009             0
Alpha 18O HCO3-/H2O(l)                            1   1.5543e-012             0
Alpha 13C HCO3-/CO2(aq)                      1.0087        8.6622        8.6622
Alpha 13C HCO3-/CO2(g)                       1.0079        7.8231        7.8231
Alpha 18O CO3-2/H2O(l)                            1  -2.8697e-005             0
Alpha 13C CO3-2/CO2(aq)                      1.0073        7.2261        7.2261
Alpha 13C CO3-2/CO2(g)                       1.0064         6.387         6.387
Alpha D CH4(aq)/H2O(l)                            1   -3.754e-009             0
Alpha 13C CH4(aq)/CO2(aq)                         1   4.2188e-012             0
Alpha D H2O(g)/H2O(l)                       0.92649       -76.356       -76.356
Alpha 18O H2O(g)/H2O(l)                     0.99071         -9.33         -9.33
Alpha 18O CO2(g)/H2O(l)                       1.041        40.151        40.151
Alpha 13C CO2(g)/CO2(aq)                     1.0008       0.83913       0.83913

-----------------------------Solution composition------------------------------

	Elements           Molality       Moles

	C                1.066e-005  1.062e-005
	Cl               1.102e-002  1.099e-002
	D                1.735e-002  1.729e-002
	[13C]            1.183e-007  1.179e-007
	[18O]            1.115e-001  1.111e-001

----------------------------Description of solution----------------------------

                                       pH  =   2.000      Charge balance
                                       pe  =   3.593      Adjusted to redox equilibrium
                        Activity of water  =   0.997
                           Ionic strength  =  1.102e-002
                       Mass of water (kg)  =  9.968e-001
                 Total alkalinity (eq/kg)  = -1.102e-002
                       Total CO2 (mol/kg)  =  1.066e-005
                      Temperature (deg C)  =  25.00
                           Pressure (atm)  =  0.03
                  Electrical balance (eq)  = -1.106e-015
 Percent error, 100*(Cat-|An|)/(Cat+|An|)  =  -0.00
                               Iterations  =   7
                                  Total H  = 1.110281e+002
                                  Total O  = 5.540612e+001

----------------------------Distribution of species----------------------------

                                               Log       Log       Log    mole V
   Species          Molality    Activity  Molality  Activity     Gamma   cm3/mol

   H3O+           1.099e-002  1.001e-002    -1.959    -2.000    -0.041     (0)  
   OH-            1.111e-012  9.954e-013   -11.954   -12.002    -0.048     (0)  
   H2O            5.556e+001  9.974e-001     1.745    -0.001     0.000     18.07
C(-4)        4.844e-026
   CH4            4.841e-026  4.853e-026   -25.315   -25.314     0.001     (0)  
   CH3D           3.016e-029  3.024e-029   -28.521   -28.519     0.001     (0)  
   CH2D2          7.046e-033  7.064e-033   -32.152   -32.151     0.001     (0)  
   CHD3           7.317e-037  7.335e-037   -36.136   -36.135     0.001     (0)  
   CD4            0.000e+000  0.000e+000   -40.545   -40.544     0.001     (0)  
C(4)         1.066e-005
   CO2            1.061e-005  1.064e-005    -4.974    -4.973     0.001     (0)  
   CO[18O]        4.434e-008  4.446e-008    -7.353    -7.352     0.001     (0)  
   HCO3-          5.238e-010  4.703e-010    -9.281    -9.328    -0.047     (0)  
   C[18O]2        4.633e-011  4.645e-011   -10.334   -10.333     0.001     (0)  
   HCO[18O]O-     1.050e-012  9.431e-013   -11.979   -12.025    -0.047     (0)  
   HC[18O]O2-     1.050e-012  9.431e-013   -11.979   -12.025    -0.047     (0)  
   HCO2[18O]-     1.050e-012  9.431e-013   -11.979   -12.025    -0.047     (0)  
   DCO3-          8.159e-014  7.326e-014   -13.088   -13.135    -0.047     (0)  
   HCO[18O]2-     2.106e-015  1.891e-015   -14.677   -14.723    -0.047     (0)  
   HC[18O]O[18O]-  2.106e-015  1.891e-015   -14.677   -14.723    -0.047     (0)  
   HC[18O]2O-     2.106e-015  1.891e-015   -14.677   -14.723    -0.047     (0)  
   DC[18O]O2-     1.636e-016  1.469e-016   -15.786   -15.833    -0.047     (0)  
   DCO[18O]O-     1.636e-016  1.469e-016   -15.786   -15.833    -0.047     (0)  
   DCO2[18O]-     1.636e-016  1.469e-016   -15.786   -15.833    -0.047     (0)  
   HC[18O]3-      4.223e-018  3.792e-018   -17.374   -17.421    -0.047     (0)  
   CO3-2          3.384e-018  2.199e-018   -17.471   -17.658    -0.187     (0)  
   DCO[18O]2-     3.281e-019  2.946e-019   -18.484   -18.531    -0.047     (0)  
   DC[18O]O[18O]-  3.281e-019  2.946e-019   -18.484   -18.531    -0.047     (0)  
   DC[18O]2O-     3.281e-019  2.946e-019   -18.484   -18.531    -0.047     (0)  
   CO2[18O]-2     2.035e-020  1.323e-020   -19.691   -19.878    -0.187     (0)  
   DC[18O]3-      6.578e-022  5.906e-022   -21.182   -21.229    -0.047     (0)  
   CO[18O]2-2     4.082e-023  2.653e-023   -22.389   -22.576    -0.187     (0)  
   C[18O]3-2      2.728e-026  1.773e-026   -25.564   -25.751    -0.187     (0)  
Cl           1.102e-002
   Cl-            1.102e-002  9.876e-003    -1.958    -2.005    -0.048     (0)  
D(0)         1.442e-018
   HD             1.442e-018  1.446e-018   -17.841   -17.840     0.001     (0)  
   D2             1.123e-022  1.126e-022   -21.950   -21.948     0.001     (0)  
D(1)         1.735e-002
   HDO            1.731e-002  3.107e-004    -1.762    -3.508    -1.746     (0)  
   HD[18O]        3.470e-005  6.230e-007    -4.460    -6.205    -1.746     (0)  
   H2DO+          5.351e-006  4.870e-006    -5.272    -5.312    -0.041     (0)  
   D2O            1.348e-006  2.420e-008    -5.870    -7.616    -1.746     (0)  
   H2D[18O]+      1.098e-008  9.991e-009    -7.960    -8.000    -0.041     (0)  
   D2[18O]        2.703e-009  4.852e-011    -8.568   -10.314    -1.746     (0)  
   HD2O+          8.681e-010  7.902e-010    -9.061    -9.102    -0.041     (0)  
   HD2[18O]+      1.781e-012  1.621e-012   -11.749   -11.790    -0.041     (0)  
   DCO3-          8.159e-014  7.326e-014   -13.088   -13.135    -0.047     (0)  
   D3O+           4.695e-014  4.273e-014   -13.328   -13.369    -0.041     (0)  
   D[13C]O3-      9.137e-016  8.204e-016   -15.039   -15.086    -0.047     (0)  
   DCO2[18O]-     1.636e-016  1.469e-016   -15.786   -15.833    -0.047     (0)  
   DCO[18O]O-     1.636e-016  1.469e-016   -15.786   -15.833    -0.047     (0)  
   DC[18O]O2-     1.636e-016  1.469e-016   -15.786   -15.833    -0.047     (0)  
   D3[18O]+       9.632e-017  8.767e-017   -16.016   -16.057    -0.041     (0)  
   OD-            4.121e-017  3.692e-017   -16.385   -16.433    -0.048     (0)  
   D[13C]O[18O]O-  1.832e-018  1.645e-018   -17.737   -17.784    -0.047     (0)  
   D[13C]O2[18O]-  1.832e-018  1.645e-018   -17.737   -17.784    -0.047     (0)  
   D[13C][18O]O2-  1.832e-018  1.645e-018   -17.737   -17.784    -0.047     (0)  
   DCO[18O]2-     3.281e-019  2.946e-019   -18.484   -18.531    -0.047     (0)  
   DC[18O]2O-     3.281e-019  2.946e-019   -18.484   -18.531    -0.047     (0)  
   DC[18O]O[18O]-  3.281e-019  2.946e-019   -18.484   -18.531    -0.047     (0)  
   [18O]D-        7.957e-020  7.128e-020   -19.099   -19.147    -0.048     (0)  
   D[13C][18O]2O-  3.674e-021  3.299e-021   -20.435   -20.482    -0.047     (0)  
   D[13C][18O]O[18O]-  3.674e-021  3.299e-021   -20.435   -20.482    -0.047     (0)  
   D[13C]O[18O]2-  3.674e-021  3.299e-021   -20.435   -20.482    -0.047     (0)  
   DC[18O]3-      6.578e-022  5.906e-022   -21.182   -21.229    -0.047     (0)  
   D[13C][18O]3-  7.366e-024  6.614e-024   -23.133   -23.180    -0.047     (0)  
   CH3D           3.016e-029  3.024e-029   -28.521   -28.519     0.001     (0)  
   [13C]H3D       3.348e-031  3.357e-031   -30.475   -30.474     0.001     (0)  
   CH2D2          7.046e-033  7.064e-033   -32.152   -32.151     0.001     (0)  
   [13C]H2D2      7.823e-035  7.843e-035   -34.107   -34.106     0.001     (0)  
   CHD3           7.317e-037  7.335e-037   -36.136   -36.135     0.001     (0)  
   [13C]HD3       8.123e-039  8.144e-039   -38.090   -38.089     0.001     (0)  
   CD4            0.000e+000  0.000e+000   -40.545   -40.544     0.001     (0)  
   [13C]D4        0.000e+000  0.000e+000   -42.500   -42.499     0.001     (0)  
H(0)         9.262e-015
   H2             4.630e-015  4.642e-015   -14.334   -14.333     0.001     (0)  
   HD             1.442e-018  1.446e-018   -17.841   -17.840     0.001     (0)  
O(0)         0.000e+000
   O2             0.000e+000  0.000e+000   -63.717   -63.716     0.001     (0)  
   O[18O]         0.000e+000  0.000e+000   -66.113   -66.112     0.001     (0)  
[13C](-4)    5.377e-028
   [13C]H4        5.374e-028  5.388e-028   -27.270   -27.269     0.001     (0)  
   [13C]H3D       3.348e-031  3.357e-031   -30.475   -30.474     0.001     (0)  
   [13C]H2D2      7.823e-035  7.843e-035   -34.107   -34.106     0.001     (0)  
   [13C]HD3       8.123e-039  8.144e-039   -38.090   -38.089     0.001     (0)  
   [13C]D4        0.000e+000  0.000e+000   -42.500   -42.499     0.001     (0)  
[13C](4)     1.183e-007
   [13C]O2        1.178e-007  1.181e-007    -6.929    -6.928     0.001     (0)  
   [13C]O[18O]    4.923e-010  4.936e-010    -9.308    -9.307     0.001     (0)  
   H[13C]O3-      5.866e-012  5.267e-012   -11.232   -11.278    -0.047     (0)  
   [13C][18O]2    5.144e-013  5.157e-013   -12.289   -12.288     0.001     (0)  
   H[13C]O2[18O]-  1.176e-014  1.056e-014   -13.930   -13.976    -0.047     (0)  
   H[13C][18O]O2-  1.176e-014  1.056e-014   -13.930   -13.976    -0.047     (0)  
   H[13C]O[18O]O-  1.176e-014  1.056e-014   -13.930   -13.976    -0.047     (0)  
   D[13C]O3-      9.137e-016  8.204e-016   -15.039   -15.086    -0.047     (0)  
   H[13C][18O]O[18O]-  2.359e-017  2.118e-017   -16.627   -16.674    -0.047     (0)  
   H[13C][18O]2O-  2.359e-017  2.118e-017   -16.627   -16.674    -0.047     (0)  
   H[13C]O[18O]2-  2.359e-017  2.118e-017   -16.627   -16.674    -0.047     (0)  
   D[13C]O[18O]O-  1.832e-018  1.645e-018   -17.737   -17.784    -0.047     (0)  
   D[13C][18O]O2-  1.832e-018  1.645e-018   -17.737   -17.784    -0.047     (0)  
   D[13C]O2[18O]-  1.832e-018  1.645e-018   -17.737   -17.784    -0.047     (0)  
   H[13C][18O]3-  4.729e-020  4.247e-020   -19.325   -19.372    -0.047     (0)  
   [13C]O3-2      3.784e-020  2.459e-020   -19.422   -19.609    -0.187     (0)  
   D[13C][18O]O[18O]-  3.674e-021  3.299e-021   -20.435   -20.482    -0.047     (0)  
   D[13C]O[18O]2-  3.674e-021  3.299e-021   -20.435   -20.482    -0.047     (0)  
   D[13C][18O]2O-  3.674e-021  3.299e-021   -20.435   -20.482    -0.047     (0)  
   [13C]O2[18O]-2  2.276e-022  1.480e-022   -21.643   -21.830    -0.187     (0)  
   D[13C][18O]3-  7.366e-024  6.614e-024   -23.133   -23.180    -0.047     (0)  
   [13C]O[18O]2-2  4.564e-025  2.967e-025   -24.341   -24.528    -0.187     (0)  
   [13C][18O]3-2  3.051e-028  1.983e-028   -27.516   -27.703    -0.187     (0)  
[18O](-2)    1.115e-001
   H2[18O]        1.114e-001  2.000e-003    -0.953    -2.699    -1.746     (0)  
   HD[18O]        3.470e-005  6.230e-007    -4.460    -6.205    -1.746     (0)  
   H3[18O]+       2.255e-005  2.053e-005    -4.647    -4.688    -0.041     (0)  
   CO[18O]        4.434e-008  4.446e-008    -7.353    -7.352     0.001     (0)  
   H2D[18O]+      1.098e-008  9.991e-009    -7.960    -8.000    -0.041     (0)  
   D2[18O]        2.703e-009  4.852e-011    -8.568   -10.314    -1.746     (0)  
   [13C]O[18O]    4.923e-010  4.936e-010    -9.308    -9.307     0.001     (0)  
   C[18O]2        4.633e-011  4.645e-011   -10.334   -10.333     0.001     (0)  
   HD2[18O]+      1.781e-012  1.621e-012   -11.749   -11.790    -0.041     (0)  
   HC[18O]O2-     1.050e-012  9.431e-013   -11.979   -12.025    -0.047     (0)  
   HCO[18O]O-     1.050e-012  9.431e-013   -11.979   -12.025    -0.047     (0)  
   HCO2[18O]-     1.050e-012  9.431e-013   -11.979   -12.025    -0.047     (0)  
   [13C][18O]2    5.144e-013  5.157e-013   -12.289   -12.288     0.001     (0)  
   H[13C]O2[18O]-  1.176e-014  1.056e-014   -13.930   -13.976    -0.047     (0)  
   H[13C][18O]O2-  1.176e-014  1.056e-014   -13.930   -13.976    -0.047     (0)  
   H[13C]O[18O]O-  1.176e-014  1.056e-014   -13.930   -13.976    -0.047     (0)  
   [18O]H-        2.146e-015  1.922e-015   -14.668   -14.716    -0.048     (0)  
   HCO[18O]2-     2.106e-015  1.891e-015   -14.677   -14.723    -0.047     (0)  
   HC[18O]O[18O]-  2.106e-015  1.891e-015   -14.677   -14.723    -0.047     (0)  
   HC[18O]2O-     2.106e-015  1.891e-015   -14.677   -14.723    -0.047     (0)  
   DC[18O]O2-     1.636e-016  1.469e-016   -15.786   -15.833    -0.047     (0)  
   DCO2[18O]-     1.636e-016  1.469e-016   -15.786   -15.833    -0.047     (0)  
   DCO[18O]O-     1.636e-016  1.469e-016   -15.786   -15.833    -0.047     (0)  
   D3[18O]+       9.632e-017  8.767e-017   -16.016   -16.057    -0.041     (0)  
   H[13C][18O]2O-  2.359e-017  2.118e-017   -16.627   -16.674    -0.047     (0)  
   H[13C]O[18O]2-  2.359e-017  2.118e-017   -16.627   -16.674    -0.047     (0)  
   H[13C][18O]O[18O]-  2.359e-017  2.118e-017   -16.627   -16.674    -0.047     (0)  
   HC[18O]3-      4.223e-018  3.792e-018   -17.374   -17.421    -0.047     (0)  
   D[13C][18O]O2-  1.832e-018  1.645e-018   -17.737   -17.784    -0.047     (0)  
   D[13C]O[18O]O-  1.832e-018  1.645e-018   -17.737   -17.784    -0.047     (0)  
   D[13C]O2[18O]-  1.832e-018  1.645e-018   -17.737   -17.784    -0.047     (0)  
   DC[18O]2O-     3.281e-019  2.946e-019   -18.484   -18.531    -0.047     (0)  
   DCO[18O]2-     3.281e-019  2.946e-019   -18.484   -18.531    -0.047     (0)  
   DC[18O]O[18O]-  3.281e-019  2.946e-019   -18.484   -18.531    -0.047     (0)  
   [18O]D-        7.957e-020  7.128e-020   -19.099   -19.147    -0.048     (0)  
   H[13C][18O]3-  4.729e-020  4.247e-020   -19.325   -19.372    -0.047     (0)  
   CO2[18O]-2     2.035e-020  1.323e-020   -19.691   -19.878    -0.187     (0)  
   D[13C][18O]O[18O]-  3.674e-021  3.299e-021   -20.435   -20.482    -0.047     (0)  
   D[13C]O[18O]2-  3.674e-021  3.299e-021   -20.435   -20.482    -0.047     (0)  
   D[13C][18O]2O-  3.674e-021  3.299e-021   -20.435   -20.482    -0.047     (0)  
   DC[18O]3-      6.578e-022  5.906e-022   -21.182   -21.229    -0.047     (0)  
   [13C]O2[18O]-2  2.276e-022  1.480e-022   -21.643   -21.830    -0.187     (0)  
   CO[18O]2-2     4.082e-023  2.653e-023   -22.389   -22.576    -0.187     (0)  
   D[13C][18O]3-  7.366e-024  6.614e-024   -23.133   -23.180    -0.047     (0)  
   [13C]O[18O]2-2  4.564e-025  2.967e-025   -24.341   -24.528    -0.187     (0)  
   C[18O]3-2      2.728e-026  1.773e-026   -25.564   -25.751    -0.187     (0)  
   [13C][18O]3-2  3.051e-028  1.983e-028   -27.516   -27.703    -0.187     (0)  
[18O](0)     0.000e+000
   O[18O]         0.000e+000  0.000e+000   -66.113   -66.112     0.001     (0)  
   [18O]2         0.000e+000  0.000e+000   -69.112   -69.111     0.001     (0)  

------------------------------Saturation indices-------------------------------

	Phase               SI   log IAP   log K(298 K,   0 atm)

	[13C][18O]2(g)  -10.82    -12.32   -1.50  [13C][18O]2
	[13C]D4(g)      -39.64    -42.50   -2.86  [13C]D4
	[13C]H2D2(g)    -31.25    -34.88   -3.64  [13C]H2D2
	[13C]H3D(g)     -27.61    -31.08   -3.46  [13C]H3D
	[13C]H4(g)      -24.41    -27.27   -2.86  [13C]H4
	[13C]HD3(g)     -35.23    -38.69   -3.46  [13C]HD3
	[13C]O2(g)       -5.46     -6.93   -1.47  [13C]O2
	[13C]O[18O](g)   -7.84     -9.63   -1.79  [13C]O[18O]
	[18O]2(g)       -66.82    -69.11   -2.29  [18O]2
	C[18O]2(g)       -8.87    -10.37   -1.50  C[18O]2
	CD4(g)          -37.68    -40.54   -2.86  CD4
	CH2D2(g)        -29.29    -32.93   -3.64  CH2D2
	CH3D(g)         -25.66    -29.12   -3.46  CH3D
	CH4(g)          -22.45    -25.31   -2.86  CH4
	CHD3(g)         -33.27    -36.74   -3.46  CHD3
	CO2(g)           -3.51     -4.97   -1.47  CO2
	CO[18O](g)       -5.88     -7.67   -1.79  CO[18O]
	D2(g)           -18.80    -21.95   -3.15  D2
	D2[18O](g)      -11.89    -10.31    1.58  D2[18O]
	D2O(g)           -9.19     -7.62    1.58  D2O
	H2(g)           -11.18    -14.33   -3.15  H2
	H2[18O](g)       -4.21     -2.70    1.51  H2[18O]
	H2O(g)           -1.51     -0.00    1.51  H2O
	HD(g)           -14.69    -18.14   -3.45  HD
	HD[18O](g)       -7.75     -6.51    1.25  HD[18O]
	HDO(g)           -5.05     -3.81    1.24  HDO
	O2(g)           -60.82    -63.72   -2.89  O2
	O[18O](g)       -63.52    -66.41   -2.89  O[18O]


------------------
End of simulation.
------------------

------------------------------------
Reading input data for simulation 4.
------------------------------------

-------------------------------
End of Run after 0.249 Seconds.
-------------------------------

