WARNING: Database file from DATABASE keyword is used; command line argument ignored.
   Input file: co2_VP
  Output file: co2_VP.out
Database file: ../database/phreeqc.dat

------------------
Reading data base.
------------------

	SOLUTION_MASTER_SPECIES
	SOLUTION_SPECIES
	PHASES
	EXCHANGE_MASTER_SPECIES
	EXCHANGE_SPECIES
	SURFACE_MASTER_SPECIES
	SURFACE_SPECIES
	RATES
	END
------------------------------------
Reading input data for simulation 1.
------------------------------------

	database ../database/phreeqc.dat # contains Dw's since version 2.17
	SOLUTION 1
	temp 25 # 40.09
	REACTION 1
	CO2 1
	 0.1 10*0.4 12*2
	INCREMENTAL_REACTIONS true
	GAS_PHASE 1
	fixed_volume
	 CO2(g) 20
	USER_GRAPH
	-headings Vm
	-plot_csv_file co2_VP.dat
	-connect_simulations false
	-axis_scale x_axis 0 0.5 #0.2
	-axis_scale y_axis 0 500 #100
	-axis_titles "molar volume / (L/mol)" "Gas pressure / atm"
	60 graph_x 1 / gas("CO2(g)")
	70 graph_y  gas_p #* pr_phi("CO2(g)")
	END
-------------------------------------------
Beginning of initial solution calculations.
-------------------------------------------

Initial solution 1.	

-----------------------------Solution composition------------------------------

	Elements           Molality       Moles

	Pure water     

----------------------------Description of solution----------------------------

                                       pH  =   7.000    
                                       pe  =   4.000    
       Specific Conductance (uS/cm, 25 oC) = 0
                          Density (g/cm3)  =   0.99704
                               Volume (L)  =   1.00297
                        Activity of water  =   1.000
                           Ionic strength  =  1.007e-007
                       Mass of water (kg)  =  1.000e+000
                 Total alkalinity (eq/kg)  =  1.217e-009
                    Total carbon (mol/kg)  =  0.000e+000
                       Total CO2 (mol/kg)  =  0.000e+000
                      Temperature (deg C)  =  25.00
                  Electrical balance (eq)  = -1.217e-009
 Percent error, 100*(Cat-|An|)/(Cat+|An|)  =  -0.60
                               Iterations  =   0
                                  Total H  = 1.110124e+002
                                  Total O  = 5.550622e+001

----------------------------Distribution of species----------------------------

                                               Log       Log       Log    mole V
   Species          Molality    Activity  Molality  Activity     Gamma   cm3/mol

   OH-            1.013e-007  1.012e-007    -6.995    -6.995    -0.000     -4.14
   H+             1.001e-007  1.000e-007    -7.000    -7.000    -0.000      0.00
   H2O            5.551e+001  1.000e+000     1.744     0.000     0.000     18.07
H(0)         1.416e-025
   H2             7.079e-026  7.079e-026   -25.150   -25.150     0.000     28.61
O(0)         0.000e+000
   O2             0.000e+000  0.000e+000   -42.080   -42.080     0.000     30.40

------------------------------Saturation indices-------------------------------

	Phase               SI   log IAP   log K(298 K,   1 atm)

	H2(g)           -22.05    -25.15   -3.10  H2
	H2O(g)           -1.50      0.00    1.50  H2O
	O2(g)           -39.19    -42.08   -2.89  O2


-----------------------------------------
Beginning of batch-reaction calculations.
-----------------------------------------

Reaction step 1.

Using solution 1.	
Using gas phase 1.	
Using reaction 1.	

Reaction 1.	

	 1.000e-001 moles of the following reaction have been added:

	                 Relative
	Reactant            moles

	CO2                  1.00000

	                 Relative
	Element             moles
	C                    1.00000
	O                    2.00000

-----------------------------------Gas phase-----------------------------------

Total pressure: 13.52      atmospheres          (Peng-Robinson calculation)
    Gas volume:  1.00e+000 liters
  Molar volume:  1.67e+000 liters/mole
   P * Vm / RT:  0.92203  (Compressibility Factor Z) 

                                                        Moles in gas
                                            ----------------------------------
Component         log P           P    phi     Initial       Final       Delta

CO2(g)             1.13  1.352e+001  0.926  9.268e-001  5.991e-001 -3.277e-001

-----------------------------Solution composition------------------------------

	Elements           Molality       Moles

	C                4.277e-001  4.277e-001

----------------------------Description of solution----------------------------

                                       pH  =   3.359      Charge balance
                                       pe  =  14.529      Adjusted to redox equilibrium
       Specific Conductance (uS/cm, 25 oC) = 173
                          Density (g/cm3)  =   1.00343
                               Volume (L)  =   1.03623
                        Activity of water  =   0.993
                           Ionic strength  =  4.475e-004
                       Mass of water (kg)  =  1.000e+000
                 Total alkalinity (eq/kg)  =  1.216e-009
                       Total CO2 (mol/kg)  =  4.277e-001
                      Temperature (deg C)  =  25.00
                           Pressure (atm)  = 13.52
                  Electrical balance (eq)  = -1.216e-009
 Percent error, 100*(Cat-|An|)/(Cat+|An|)  =  -0.00
                               Iterations  =  35
                                  Total H  = 1.110124e+002
                                  Total O  = 5.636163e+001

----------------------------Distribution of species----------------------------

                                               Log       Log       Log    mole V
   Species          Molality    Activity  Molality  Activity     Gamma   cm3/mol

   H+             4.475e-004  4.371e-004    -3.349    -3.359    -0.010      0.00
   OH-            2.382e-011  2.325e-011   -10.623   -10.634    -0.011     -4.07
   H2O            5.551e+001  9.927e-001     1.744    -0.003     0.000     18.06
C(-4)        0.000e+000
   CH4            0.000e+000  0.000e+000  -119.088  -119.087     0.000     32.22
C(4)         4.277e-001
   CO2            4.273e-001  4.273e-001    -0.369    -0.369     0.000     30.29
   HCO3-          4.475e-004  4.369e-004    -3.349    -3.360    -0.010     24.59
   CO3-2          5.235e-011  4.757e-011   -10.281   -10.323    -0.042     -4.31
H(0)         2.334e-039
   H2             1.167e-039  1.167e-039   -38.933   -38.933     0.000     28.60
O(0)         5.876e-015
   O2             2.938e-015  2.939e-015   -14.532   -14.532     0.000     30.38

------------------------------Saturation indices-------------------------------

	Phase               SI   log IAP   log K(298 K,  14 atm)

	CH4(g)         -116.26   -119.09   -2.83  CH4
	CO2(g)            1.09     -0.37   -1.46  CO2	 Pressure  13.5 atm, phi 0.926.
	H2(g)           -35.83    -38.93   -3.10  H2
	H2O(g)           -1.50     -0.00    1.50  H2O
	O2(g)           -11.63    -14.53   -2.90  O2


Reaction step 2.

Using solution 1.	
Using gas phase 1.	
Using reaction 1.	

Reaction 1.	

	 4.000e-001 moles of the following reaction have been added:

	                 Relative
	Reactant            moles

	CO2                  1.00000

	                 Relative
	Element             moles
	C                    1.00000
	O                    2.00000

-----------------------------------Gas phase-----------------------------------

Total pressure: 18.67      atmospheres          (Peng-Robinson calculation)
    Gas volume:  1.00e+000 liters
  Molar volume:  1.17e+000 liters/mole
   P * Vm / RT:  0.89035  (Compressibility Factor Z) 

                                                        Moles in gas
                                            ----------------------------------
Component         log P           P    phi     Initial       Final       Delta

CO2(g)             1.27  1.867e+001  0.899  5.991e-001  8.572e-001  2.580e-001

-----------------------------Solution composition------------------------------

	Elements           Molality       Moles

	C                5.697e-001  5.697e-001

----------------------------Description of solution----------------------------

                                       pH  =   3.297      Charge balance
                                       pe  =  14.455      Adjusted to redox equilibrium
       Specific Conductance (uS/cm, 25 oC) = 201
                          Density (g/cm3)  =   1.00555
                               Volume (L)  =   1.04718
                        Activity of water  =   0.990
                           Ionic strength  =  5.180e-004
                       Mass of water (kg)  =  1.000e+000
                 Total alkalinity (eq/kg)  =  1.215e-009
                       Total CO2 (mol/kg)  =  5.697e-001
                      Temperature (deg C)  =  25.00
                           Pressure (atm)  = 18.67
                  Electrical balance (eq)  = -1.215e-009
 Percent error, 100*(Cat-|An|)/(Cat+|An|)  =  -0.00
                               Iterations  =  24
                                  Total H  = 1.110124e+002
                                  Total O  = 5.664556e+001

----------------------------Distribution of species----------------------------

                                               Log       Log       Log    mole V
   Species          Molality    Activity  Molality  Activity     Gamma   cm3/mol

   H+             5.180e-004  5.052e-004    -3.286    -3.297    -0.011      0.00
   OH-            2.069e-011  2.016e-011   -10.684   -10.696    -0.011     -4.05
   H2O            5.551e+001  9.903e-001     1.744    -0.004     0.000     18.06
C(-4)        0.000e+000
   CH4            0.000e+000  0.000e+000  -117.872  -117.872     0.000     32.22
C(4)         5.697e-001
   CO2            5.692e-001  5.692e-001    -0.245    -0.245     0.000     30.30
   HCO3-          5.180e-004  5.049e-004    -3.286    -3.297    -0.011     24.60
   CO3-2          5.303e-011  4.785e-011   -10.275   -10.320    -0.045     -4.26
H(0)         4.351e-039
   H2             2.176e-039  2.176e-039   -38.662   -38.662     0.000     28.60
O(0)         1.664e-015
   O2             8.320e-016  8.321e-016   -15.080   -15.080     0.000     30.37

------------------------------Saturation indices-------------------------------

	Phase               SI   log IAP   log K(298 K,  19 atm)

	CH4(g)         -115.05   -117.87   -2.82  CH4
	CO2(g)            1.21     -0.24   -1.45  CO2	 Pressure  18.7 atm, phi 0.899.
	H2(g)           -35.56    -38.66   -3.10  H2
	H2O(g)           -1.50     -0.00    1.50  H2O
	O2(g)           -12.18    -15.08   -2.90  O2


Reaction step 3.

Using solution 1.	
Using gas phase 1.	
Using reaction 1.	

Reaction 1.	

	 4.000e-001 moles of the following reaction have been added:

	                 Relative
	Reactant            moles

	CO2                  1.00000

	                 Relative
	Element             moles
	C                    1.00000
	O                    2.00000

-----------------------------------Gas phase-----------------------------------

Total pressure: 23.71      atmospheres          (Peng-Robinson calculation)
    Gas volume:  1.00e+000 liters
  Molar volume:  8.86e-001 liters/mole
   P * Vm / RT:  0.85812  (Compressibility Factor Z) 

                                                        Moles in gas
                                            ----------------------------------
Component         log P           P    phi     Initial       Final       Delta

CO2(g)             1.37  2.371e+001  0.873  8.572e-001  1.129e+000  2.721e-001

-----------------------------Solution composition------------------------------

	Elements           Molality       Moles

	C                6.976e-001  6.976e-001

----------------------------Description of solution----------------------------

                                       pH  =   3.252      Charge balance
                                       pe  =   2.100      Adjusted to redox equilibrium
       Specific Conductance (uS/cm, 25 oC) = 222
                          Density (g/cm3)  =   1.00746
                               Volume (L)  =   1.05701
                        Activity of water  =   0.988
                           Ionic strength  =  5.748e-004
                       Mass of water (kg)  =  1.000e+000
                 Total alkalinity (eq/kg)  =  1.216e-009
                       Total CO2 (mol/kg)  =  6.976e-001
                      Temperature (deg C)  =  25.00
                           Pressure (atm)  = 23.71
                  Electrical balance (eq)  = -1.216e-009
 Percent error, 100*(Cat-|An|)/(Cat+|An|)  =  -0.00
                               Iterations  =  40
                                  Total H  = 1.110124e+002
                                  Total O  = 5.690143e+001

----------------------------Distribution of species----------------------------

                                               Log       Log       Log    mole V
   Species          Molality    Activity  Molality  Activity     Gamma   cm3/mol

   H+             5.748e-004  5.599e-004    -3.241    -3.252    -0.011      0.00
   OH-            1.874e-011  1.823e-011   -10.727   -10.739    -0.012     -4.03
   H2O            5.551e+001  9.881e-001     1.744    -0.005     0.000     18.05
C(-4)        2.573e-019
   CH4            2.573e-019  2.573e-019   -18.590   -18.590     0.000     32.22
C(4)         6.976e-001
   CO2            6.970e-001  6.971e-001    -0.157    -0.157     0.000     30.31
   HCO3-          5.748e-004  5.595e-004    -3.241    -3.252    -0.012     24.60
   CO3-2          5.362e-011  4.813e-011   -10.271   -10.318    -0.047     -4.21
H(0)         2.722e-014
   H2             1.361e-014  1.361e-014   -13.866   -13.866     0.000     28.59
O(0)         0.000e+000
   O2             0.000e+000  0.000e+000   -64.679   -64.679     0.000     30.37

------------------------------Saturation indices-------------------------------

	Phase               SI   log IAP   log K(298 K,  24 atm)

	CH4(g)          -15.77    -18.59   -2.82  CH4
	CO2(g)            1.29     -0.16   -1.45  CO2	 Pressure  23.7 atm, phi 0.873.
	H2(g)           -10.77    -13.87   -3.10  H2
	H2O(g)           -1.50     -0.01    1.50  H2O
	O2(g)           -61.77    -64.68   -2.91  O2


Reaction step 4.

Using solution 1.	
Using gas phase 1.	
Using reaction 1.	

Reaction 1.	

	 4.000e-001 moles of the following reaction have been added:

	                 Relative
	Reactant            moles

	CO2                  1.00000

	                 Relative
	Element             moles
	C                    1.00000
	O                    2.00000

-----------------------------------Gas phase-----------------------------------

Total pressure: 28.58      atmospheres          (Peng-Robinson calculation)
    Gas volume:  1.00e+000 liters
  Molar volume:  7.07e-001 liters/mole
   P * Vm / RT:  0.82547  (Compressibility Factor Z) 

                                                        Moles in gas
                                            ----------------------------------
Component         log P           P    phi     Initial       Final       Delta

CO2(g)             1.46  2.858e+001  0.847  1.129e+000  1.415e+000  2.860e-001

-----------------------------Solution composition------------------------------

	Elements           Molality       Moles

	C                8.116e-001  8.116e-001

----------------------------Description of solution----------------------------

                                       pH  =   3.218      Charge balance
                                       pe  =   2.072      Adjusted to redox equilibrium
       Specific Conductance (uS/cm, 25 oC) = 240
                          Density (g/cm3)  =   1.00916
                               Volume (L)  =   1.06573
                        Activity of water  =   0.986
                           Ionic strength  =  6.214e-004
                       Mass of water (kg)  =  1.000e+000
                 Total alkalinity (eq/kg)  =  1.216e-009
                       Total CO2 (mol/kg)  =  8.116e-001
                      Temperature (deg C)  =  25.00
                           Pressure (atm)  = 28.58
                  Electrical balance (eq)  = -1.216e-009
 Percent error, 100*(Cat-|An|)/(Cat+|An|)  =  -0.00
                               Iterations  =  26
                                  Total H  = 1.110124e+002
                                  Total O  = 5.712946e+001

----------------------------Distribution of species----------------------------

                                               Log       Log       Log    mole V
   Species          Molality    Activity  Molality  Activity     Gamma   cm3/mol

   H+             6.214e-004  6.047e-004    -3.207    -3.218    -0.012      0.00
   OH-            1.741e-011  1.692e-011   -10.759   -10.772    -0.012     -4.01
   H2O            5.551e+001  9.862e-001     1.744    -0.006     0.000     18.05
C(-4)        9.272e-019
   CH4            9.272e-019  9.273e-019   -18.033   -18.033     0.000     32.22
C(4)         8.116e-001
   CO2            8.110e-001  8.111e-001    -0.091    -0.091     0.000     30.32
   HCO3-          6.214e-004  6.043e-004    -3.207    -3.219    -0.012     24.61
   CO3-2          5.414e-011  4.841e-011   -10.266   -10.315    -0.049     -4.17
H(0)         3.594e-014
   H2             1.797e-014  1.797e-014   -13.745   -13.745     0.000     28.59
O(0)         0.000e+000
   O2             0.000e+000  0.000e+000   -64.927   -64.926     0.000     30.36

------------------------------Saturation indices-------------------------------

	Phase               SI   log IAP   log K(298 K,  29 atm)

	CH4(g)          -15.22    -18.03   -2.81  CH4
	CO2(g)            1.36     -0.09   -1.45  CO2	 Pressure  28.6 atm, phi 0.847.
	H2(g)           -10.64    -13.75   -3.10  H2
	H2O(g)           -1.50     -0.01    1.49  H2O
	O2(g)           -62.02    -64.93   -2.91  O2


Reaction step 5.

Using solution 1.	
Using gas phase 1.	
Using reaction 1.	

Reaction 1.	

	 4.000e-001 moles of the following reaction have been added:

	                 Relative
	Reactant            moles

	CO2                  1.00000

	                 Relative
	Element             moles
	C                    1.00000
	O                    2.00000

-----------------------------------Gas phase-----------------------------------

Total pressure: 33.25      atmospheres          (Peng-Robinson calculation)
    Gas volume:  1.00e+000 liters
  Molar volume:  5.83e-001 liters/mole
   P * Vm / RT:  0.79256  (Compressibility Factor Z) 

                                                        Moles in gas
                                            ----------------------------------
Component         log P           P    phi     Initial       Final       Delta

CO2(g)             1.52  3.325e+001  0.823  1.415e+000  1.715e+000  2.996e-001

-----------------------------Solution composition------------------------------

	Elements           Molality       Moles

	C                9.121e-001  9.120e-001

----------------------------Description of solution----------------------------

                                       pH  =   3.192      Charge balance
                                       pe  =   2.139      Adjusted to redox equilibrium
       Specific Conductance (uS/cm, 25 oC) = 255
                          Density (g/cm3)  =   1.01067
                               Volume (L)  =   1.07338
                        Activity of water  =   0.984
                           Ionic strength  =  6.602e-004
                       Mass of water (kg)  =  1.000e+000
                 Total alkalinity (eq/kg)  =  1.216e-009
                       Total CO2 (mol/kg)  =  9.121e-001
                      Temperature (deg C)  =  25.00
                           Pressure (atm)  = 33.25
                  Electrical balance (eq)  = -1.216e-009
 Percent error, 100*(Cat-|An|)/(Cat+|An|)  =  -0.00
                               Iterations  =  26
                                  Total H  = 1.110124e+002
                                  Total O  = 5.733031e+001

----------------------------Distribution of species----------------------------

                                               Log       Log       Log    mole V
   Species          Molality    Activity  Molality  Activity     Gamma   cm3/mol

   H+             6.602e-004  6.420e-004    -3.180    -3.192    -0.012      0.00
   OH-            1.645e-011  1.598e-011   -10.784   -10.796    -0.013     -3.99
   H2O            5.551e+001  9.845e-001     1.744    -0.007     0.000     18.04
C(-4)        4.877e-019
   CH4            4.877e-019  4.878e-019   -18.312   -18.312     0.000     32.22
C(4)         9.121e-001
   CO2            9.114e-001  9.115e-001    -0.040    -0.040     0.000     30.33
   HCO3-          6.602e-004  6.415e-004    -3.180    -3.193    -0.013     24.62
   CO3-2          5.461e-011  4.867e-011   -10.263   -10.313    -0.050     -4.13
H(0)         2.959e-014
   H2             1.480e-014  1.480e-014   -13.830   -13.830     0.000     28.59
O(0)         0.000e+000
   O2             0.000e+000  0.000e+000   -64.764   -64.763     0.000     30.35

------------------------------Saturation indices-------------------------------

	Phase               SI   log IAP   log K(298 K,  33 atm)

	CH4(g)          -15.50    -18.31   -2.81  CH4
	CO2(g)            1.41     -0.04   -1.45  CO2	 Pressure  33.3 atm, phi 0.823.
	H2(g)           -10.73    -13.83   -3.10  H2
	H2O(g)           -1.50     -0.01    1.49  H2O
	O2(g)           -61.85    -64.76   -2.91  O2


Reaction step 6.

Using solution 1.	
Using gas phase 1.	
Using reaction 1.	

Reaction 1.	

	 4.000e-001 moles of the following reaction have been added:

	                 Relative
	Reactant            moles

	CO2                  1.00000

	                 Relative
	Element             moles
	C                    1.00000
	O                    2.00000

-----------------------------------Gas phase-----------------------------------

Total pressure: 37.68      atmospheres          (Peng-Robinson calculation)
    Gas volume:  1.00e+000 liters
  Molar volume:  4.93e-001 liters/mole
   P * Vm / RT:  0.75958  (Compressibility Factor Z) 

                                                        Moles in gas
                                            ----------------------------------
Component         log P           P    phi     Initial       Final       Delta

CO2(g)             1.58  3.768e+001  0.801  1.715e+000  2.027e+000  3.126e-001

-----------------------------Solution composition------------------------------

	Elements           Molality       Moles

	C                9.994e-001  9.994e-001

----------------------------Description of solution----------------------------

                                       pH  =   3.172      Charge balance
                                       pe  =   2.072      Adjusted to redox equilibrium
       Specific Conductance (uS/cm, 25 oC) = 268
                          Density (g/cm3)  =   1.01199
                               Volume (L)  =   1.08002
                        Activity of water  =   0.983
                           Ionic strength  =  6.926e-004
                       Mass of water (kg)  =  1.000e+000
                 Total alkalinity (eq/kg)  =  1.216e-009
                       Total CO2 (mol/kg)  =  9.994e-001
                      Temperature (deg C)  =  25.00
                           Pressure (atm)  = 37.68
                  Electrical balance (eq)  = -1.216e-009
 Percent error, 100*(Cat-|An|)/(Cat+|An|)  =  -0.00
                               Iterations  =  26
                                  Total H  = 1.110124e+002
                                  Total O  = 5.750508e+001

----------------------------Distribution of species----------------------------

                                               Log       Log       Log    mole V
   Species          Molality    Activity  Molality  Activity     Gamma   cm3/mol

   H+             6.926e-004  6.730e-004    -3.160    -3.172    -0.012      0.00
   OH-            1.574e-011  1.528e-011   -10.803   -10.816    -0.013     -3.98
   H2O            5.551e+001  9.830e-001     1.744    -0.007     0.000     18.04
C(-4)        2.673e-018
   CH4            2.673e-018  2.674e-018   -17.573   -17.573     0.000     32.22
C(4)         9.994e-001
   CO2            9.988e-001  9.989e-001    -0.001    -0.000     0.000     30.34
   HCO3-          6.926e-004  6.724e-004    -3.160    -3.172    -0.013     24.62
   CO3-2          5.504e-011  4.892e-011   -10.259   -10.311    -0.051     -4.09
H(0)         4.407e-014
   H2             2.203e-014  2.204e-014   -13.657   -13.657     0.000     28.59
O(0)         0.000e+000
   O2             0.000e+000  0.000e+000   -65.115   -65.115     0.000     30.35

------------------------------Saturation indices-------------------------------

	Phase               SI   log IAP   log K(298 K,  38 atm)

	CH4(g)          -14.77    -17.57   -2.81  CH4
	CO2(g)            1.45     -0.00   -1.45  CO2	 Pressure  37.7 atm, phi 0.801.
	H2(g)           -10.56    -13.66   -3.10  H2
	H2O(g)           -1.50     -0.01    1.49  H2O
	O2(g)           -62.20    -65.11   -2.92  O2


Reaction step 7.

Using solution 1.	
Using gas phase 1.	
Using reaction 1.	

Reaction 1.	

	 4.000e-001 moles of the following reaction have been added:

	                 Relative
	Reactant            moles

	CO2                  1.00000

	                 Relative
	Element             moles
	C                    1.00000
	O                    2.00000

-----------------------------------Gas phase-----------------------------------

Total pressure: 41.82      atmospheres          (Peng-Robinson calculation)
    Gas volume:  1.00e+000 liters
  Molar volume:  4.25e-001 liters/mole
   P * Vm / RT:  0.72668  (Compressibility Factor Z) 

                                                        Moles in gas
                                            ----------------------------------
Component         log P           P    phi     Initial       Final       Delta

CO2(g)             1.62  4.182e+001  0.779  2.027e+000  2.352e+000  3.249e-001

-----------------------------Solution composition------------------------------

	Elements           Molality       Moles

	C                1.075e+000  1.075e+000

----------------------------Description of solution----------------------------

                                       pH  =   3.156      Charge balance
                                       pe  =   2.053      Adjusted to redox equilibrium
       Specific Conductance (uS/cm, 25 oC) = 278
                          Density (g/cm3)  =   1.01313
                               Volume (L)  =   1.08570
                        Activity of water  =   0.982
                           Ionic strength  =  7.195e-004
                       Mass of water (kg)  =  1.000e+000
                 Total alkalinity (eq/kg)  =  1.216e-009
                       Total CO2 (mol/kg)  =  1.075e+000
                      Temperature (deg C)  =  25.00
                           Pressure (atm)  = 41.82
                  Electrical balance (eq)  = -1.216e-009
 Percent error, 100*(Cat-|An|)/(Cat+|An|)  =  -0.00
                               Iterations  =  24
                                  Total H  = 1.110124e+002
                                  Total O  = 5.765523e+001

----------------------------Distribution of species----------------------------

                                               Log       Log       Log    mole V
   Species          Molality    Activity  Molality  Activity     Gamma   cm3/mol

   H+             7.195e-004  6.988e-004    -3.143    -3.156    -0.013      0.00
   OH-            1.521e-011  1.475e-011   -10.818   -10.831    -0.013     -3.96
   H2O            5.551e+001  9.817e-001     1.744    -0.008     0.000     18.04
C(-4)        5.516e-018
   CH4            5.516e-018  5.517e-018   -17.258   -17.258     0.000     32.22
C(4)         1.075e+000
   CO2            1.074e+000  1.074e+000     0.031     0.031     0.000     30.35
   HCO3-          7.195e-004  6.982e-004    -3.143    -3.156    -0.013     24.63
   CO3-2          5.542e-011  4.915e-011   -10.256   -10.308    -0.052     -4.05
H(0)         5.167e-014
   H2             2.583e-014  2.584e-014   -13.588   -13.588     0.000     28.59
O(0)         0.000e+000
   O2             0.000e+000  0.000e+000   -65.258   -65.258     0.000     30.34

------------------------------Saturation indices-------------------------------

	Phase               SI   log IAP   log K(298 K,  42 atm)

	CH4(g)          -14.46    -17.26   -2.80  CH4
	CO2(g)            1.48      0.03   -1.44  CO2	 Pressure  41.8 atm, phi 0.779.
	H2(g)           -10.49    -13.59   -3.10  H2
	H2O(g)           -1.50     -0.01    1.49  H2O
	O2(g)           -62.34    -65.26   -2.92  O2


Reaction step 8.

Using solution 1.	
Using gas phase 1.	
Using reaction 1.	

Reaction 1.	

	 4.000e-001 moles of the following reaction have been added:

	                 Relative
	Reactant            moles

	CO2                  1.00000

	                 Relative
	Element             moles
	C                    1.00000
	O                    2.00000

-----------------------------------Gas phase-----------------------------------

Total pressure: 45.66      atmospheres          (Peng-Robinson calculation)
    Gas volume:  1.00e+000 liters
  Molar volume:  3.72e-001 liters/mole
   P * Vm / RT:  0.69406  (Compressibility Factor Z) 

                                                        Moles in gas
                                            ----------------------------------
Component         log P           P    phi     Initial       Final       Delta

CO2(g)             1.66  4.566e+001  0.760  2.352e+000  2.689e+000  3.363e-001

-----------------------------Solution composition------------------------------

	Elements           Molality       Moles

	C                1.138e+000  1.138e+000

----------------------------Description of solution----------------------------

                                       pH  =   3.143      Charge balance
                                       pe  =   2.012      Adjusted to redox equilibrium
       Specific Conductance (uS/cm, 25 oC) = 287
                          Density (g/cm3)  =   1.01410
                               Volume (L)  =   1.09049
                        Activity of water  =   0.981
                           Ionic strength  =  7.418e-004
                       Mass of water (kg)  =  1.000e+000
                 Total alkalinity (eq/kg)  =  1.216e-009
                       Total CO2 (mol/kg)  =  1.138e+000
                      Temperature (deg C)  =  25.00
                           Pressure (atm)  = 45.66
                  Electrical balance (eq)  = -1.216e-009
 Percent error, 100*(Cat-|An|)/(Cat+|An|)  =  -0.00
                               Iterations  =  21
                                  Total H  = 1.110124e+002
                                  Total O  = 5.778253e+001

----------------------------Distribution of species----------------------------

                                               Log       Log       Log    mole V
   Species          Molality    Activity  Molality  Activity     Gamma   cm3/mol

   H+             7.418e-004  7.202e-004    -3.130    -3.143    -0.013      0.00
   OH-            1.480e-011  1.435e-011   -10.830   -10.843    -0.013     -3.95
   H2O            5.551e+001  9.806e-001     1.744    -0.008     0.000     18.03
C(-4)        1.577e-017
   CH4            1.577e-017  1.578e-017   -16.802   -16.802     0.000     32.22
C(4)         1.138e+000
   CO2            1.137e+000  1.138e+000     0.056     0.056     0.000     30.36
   HCO3-          7.418e-004  7.195e-004    -3.130    -3.143    -0.013     24.63
   CO3-2          5.576e-011  4.937e-011   -10.254   -10.307    -0.053     -4.02
H(0)         6.599e-014
   H2             3.300e-014  3.300e-014   -13.482   -13.481     0.000     28.58
O(0)         0.000e+000
   O2             0.000e+000  0.000e+000   -65.475   -65.475     0.000     30.34

------------------------------Saturation indices-------------------------------

	Phase               SI   log IAP   log K(298 K,  46 atm)

	CH4(g)          -14.01    -16.80   -2.80  CH4
	CO2(g)            1.50      0.06   -1.44  CO2	 Pressure  45.7 atm, phi 0.760.
	H2(g)           -10.38    -13.48   -3.10  H2
	H2O(g)           -1.50     -0.01    1.49  H2O
	O2(g)           -62.55    -65.47   -2.92  O2


Reaction step 9.

Using solution 1.	
Using gas phase 1.	
Using reaction 1.	

Reaction 1.	

	 4.000e-001 moles of the following reaction have been added:

	                 Relative
	Reactant            moles

	CO2                  1.00000

	                 Relative
	Element             moles
	C                    1.00000
	O                    2.00000

-----------------------------------Gas phase-----------------------------------

Total pressure: 49.15      atmospheres          (Peng-Robinson calculation)
    Gas volume:  1.00e+000 liters
  Molar volume:  3.29e-001 liters/mole
   P * Vm / RT:  0.66188  (Compressibility Factor Z) 

                                                        Moles in gas
                                            ----------------------------------
Component         log P           P    phi     Initial       Final       Delta

CO2(g)             1.69  4.915e+001  0.742  2.689e+000  3.035e+000  3.468e-001

-----------------------------Solution composition------------------------------

	Elements           Molality       Moles

	C                1.191e+000  1.191e+000

----------------------------Description of solution----------------------------

                                       pH  =   3.132      Charge balance
                                       pe  =   2.049      Adjusted to redox equilibrium
       Specific Conductance (uS/cm, 25 oC) = 294
                          Density (g/cm3)  =   1.01492
                               Volume (L)  =   1.09449
                        Activity of water  =   0.980
                           Ionic strength  =  7.601e-004
                       Mass of water (kg)  =  1.000e+000
                 Total alkalinity (eq/kg)  =  1.217e-009
                       Total CO2 (mol/kg)  =  1.191e+000
                      Temperature (deg C)  =  25.00
                           Pressure (atm)  = 49.15
                  Electrical balance (eq)  = -1.217e-009
 Percent error, 100*(Cat-|An|)/(Cat+|An|)  =  -0.00
                               Iterations  =  23
                                  Total H  = 1.110124e+002
                                  Total O  = 5.788900e+001

----------------------------Distribution of species----------------------------

                                               Log       Log       Log    mole V
   Species          Molality    Activity  Molality  Activity     Gamma   cm3/mol

   H+             7.601e-004  7.378e-004    -3.119    -3.132    -0.013      0.00
   OH-            1.448e-011  1.404e-011   -10.839   -10.853    -0.014     -3.93
   H2O            5.551e+001  9.797e-001     1.744    -0.009     0.000     18.03
C(-4)        1.011e-017
   CH4            1.011e-017  1.011e-017   -16.995   -16.995     0.000     32.22
C(4)         1.191e+000
   CO2            1.191e+000  1.191e+000     0.076     0.076     0.000     30.37
   HCO3-          7.601e-004  7.371e-004    -3.119    -3.132    -0.013     24.63
   CO3-2          5.607e-011  4.957e-011   -10.251   -10.305    -0.053     -3.99
H(0)         5.819e-014
   H2             2.910e-014  2.910e-014   -13.536   -13.536     0.000     28.58
O(0)         0.000e+000
   O2             0.000e+000  0.000e+000   -65.370   -65.370     0.000     30.33

------------------------------Saturation indices-------------------------------

	Phase               SI   log IAP   log K(298 K,  49 atm)

	CH4(g)          -14.20    -17.00   -2.79  CH4
	CO2(g)            1.52      0.08   -1.44  CO2	 Pressure  49.2 atm, phi 0.742.
	H2(g)           -10.44    -13.54   -3.10  H2
	H2O(g)           -1.50     -0.01    1.49  H2O
	O2(g)           -62.45    -65.37   -2.92  O2


Reaction step 10.

Using solution 1.	
Using gas phase 1.	
Using reaction 1.	

Reaction 1.	

	 4.000e-001 moles of the following reaction have been added:

	                 Relative
	Reactant            moles

	CO2                  1.00000

	                 Relative
	Element             moles
	C                    1.00000
	O                    2.00000

-----------------------------------Gas phase-----------------------------------

Total pressure: 52.30      atmospheres          (Peng-Robinson calculation)
    Gas volume:  1.00e+000 liters
  Molar volume:  2.95e-001 liters/mole
   P * Vm / RT:  0.63029  (Compressibility Factor Z) 

                                                        Moles in gas
                                            ----------------------------------
Component         log P           P    phi     Initial       Final       Delta

CO2(g)             1.72  5.230e+001  0.726  3.035e+000  3.392e+000  3.561e-001

-----------------------------Solution composition------------------------------

	Elements           Molality       Moles

	C                1.235e+000  1.235e+000

----------------------------Description of solution----------------------------

                                       pH  =   3.124      Charge balance
                                       pe  =   2.045      Adjusted to redox equilibrium
       Specific Conductance (uS/cm, 25 oC) = 299
                          Density (g/cm3)  =   1.01561
                               Volume (L)  =   1.09777
                        Activity of water  =   0.979
                           Ionic strength  =  7.751e-004
                       Mass of water (kg)  =  1.000e+000
                 Total alkalinity (eq/kg)  =  1.216e-009
                       Total CO2 (mol/kg)  =  1.235e+000
                      Temperature (deg C)  =  25.00
                           Pressure (atm)  = 52.30
                  Electrical balance (eq)  = -1.216e-009
 Percent error, 100*(Cat-|An|)/(Cat+|An|)  =  -0.00
                               Iterations  =  26
                                  Total H  = 1.110124e+002
                                  Total O  = 5.797676e+001

----------------------------Distribution of species----------------------------

                                               Log       Log       Log    mole V
   Species          Molality    Activity  Molality  Activity     Gamma   cm3/mol

   H+             7.751e-004  7.521e-004    -3.111    -3.124    -0.013      0.00
   OH-            1.424e-011  1.380e-011   -10.847   -10.860    -0.014     -3.92
   H2O            5.551e+001  9.790e-001     1.744    -0.009     0.000     18.03
C(-4)        1.312e-017
   CH4            1.312e-017  1.312e-017   -16.882   -16.882     0.000     32.22
C(4)         1.235e+000
   CO2            1.235e+000  1.235e+000     0.091     0.092     0.000     30.38
   HCO3-          7.751e-004  7.514e-004    -3.111    -3.124    -0.013     24.64
   CO3-2          5.633e-011  4.975e-011   -10.249   -10.303    -0.054     -3.96
H(0)         6.137e-014
   H2             3.069e-014  3.069e-014   -13.513   -13.513     0.000     28.58
O(0)         0.000e+000
   O2             0.000e+000  0.000e+000   -65.419   -65.419     0.000     30.33

------------------------------Saturation indices-------------------------------

	Phase               SI   log IAP   log K(298 K,  52 atm)

	CH4(g)          -14.09    -16.88   -2.79  CH4
	CO2(g)            1.53      0.09   -1.44  CO2	 Pressure  52.3 atm, phi 0.726.
	H2(g)           -10.41    -13.51   -3.10  H2
	H2O(g)           -1.50     -0.01    1.49  H2O
	O2(g)           -62.49    -65.42   -2.93  O2


Reaction step 11.

Using solution 1.	
Using gas phase 1.	
Using reaction 1.	

Reaction 1.	

	 4.000e-001 moles of the following reaction have been added:

	                 Relative
	Reactant            moles

	CO2                  1.00000

	                 Relative
	Element             moles
	C                    1.00000
	O                    2.00000

-----------------------------------Gas phase-----------------------------------

Total pressure: 55.08      atmospheres          (Peng-Robinson calculation)
    Gas volume:  1.00e+000 liters
  Molar volume:  2.66e-001 liters/mole
   P * Vm / RT:  0.59944  (Compressibility Factor Z) 

                                                        Moles in gas
                                            ----------------------------------
Component         log P           P    phi     Initial       Final       Delta

CO2(g)             1.74  5.508e+001  0.712  3.392e+000  3.756e+000  3.644e-001

-----------------------------Solution composition------------------------------

	Elements           Molality       Moles

	C                1.271e+000  1.271e+000

----------------------------Description of solution----------------------------

                                       pH  =   3.117      Charge balance
                                       pe  =   2.033      Adjusted to redox equilibrium
       Specific Conductance (uS/cm, 25 oC) = 304
                          Density (g/cm3)  =   1.01618
                               Volume (L)  =   1.10042
                        Activity of water  =   0.978
                           Ionic strength  =  7.872e-004
                       Mass of water (kg)  =  1.000e+000
                 Total alkalinity (eq/kg)  =  1.216e-009
                       Total CO2 (mol/kg)  =  1.271e+000
                      Temperature (deg C)  =  25.00
                           Pressure (atm)  = 55.08
                  Electrical balance (eq)  = -1.216e-009
 Percent error, 100*(Cat-|An|)/(Cat+|An|)  =  -0.00
                               Iterations  =  30
                                  Total H  = 1.110124e+002
                                  Total O  = 5.804800e+001

----------------------------Distribution of species----------------------------

                                               Log       Log       Log    mole V
   Species          Molality    Activity  Molality  Activity     Gamma   cm3/mol

   H+             7.872e-004  7.637e-004    -3.104    -3.117    -0.013      0.00
   OH-            1.405e-011  1.361e-011   -10.852   -10.866    -0.014     -3.91
   H2O            5.551e+001  9.784e-001     1.744    -0.009     0.000     18.03
C(-4)        1.878e-017
   CH4            1.878e-017  1.878e-017   -16.726   -16.726     0.000     32.22
C(4)         1.271e+000
   CO2            1.270e+000  1.270e+000     0.104     0.104     0.000     30.38
   HCO3-          7.872e-004  7.629e-004    -3.104    -3.118    -0.014     24.64
   CO3-2          5.657e-011  4.991e-011   -10.247   -10.302    -0.054     -3.94
H(0)         6.649e-014
   H2             3.324e-014  3.325e-014   -13.478   -13.478     0.000     28.58
O(0)         0.000e+000
   O2             0.000e+000  0.000e+000   -65.492   -65.492     0.000     30.32

------------------------------Saturation indices-------------------------------

	Phase               SI   log IAP   log K(298 K,  55 atm)

	CH4(g)          -13.94    -16.73   -2.79  CH4
	CO2(g)            1.54      0.10   -1.44  CO2	 Pressure  55.1 atm, phi 0.712.
	H2(g)           -10.38    -13.48   -3.10  H2
	H2O(g)           -1.50     -0.01    1.49  H2O
	O2(g)           -62.56    -65.49   -2.93  O2


Reaction step 12.

Using solution 1.	
Using gas phase 1.	
Using reaction 1.	

Reaction 1.	

	 2.000e+000 moles of the following reaction have been added:

	                 Relative
	Reactant            moles

	CO2                  1.00000

	                 Relative
	Element             moles
	C                    1.00000
	O                    2.00000

-----------------------------------Gas phase-----------------------------------

Total pressure: 63.71      atmospheres          (Peng-Robinson calculation)
    Gas volume:  1.00e+000 liters
  Molar volume:  1.76e-001 liters/mole
   P * Vm / RT:  0.45955  (Compressibility Factor Z) 

                                                        Moles in gas
                                            ----------------------------------
Component         log P           P    phi     Initial       Final       Delta

CO2(g)             1.80  6.371e+001  0.666  3.756e+000  5.667e+000  1.911e+000

-----------------------------Solution composition------------------------------

	Elements           Molality       Moles

	C                1.360e+000  1.360e+000

----------------------------Description of solution----------------------------

                                       pH  =   3.101      Charge balance
                                       pe  =   2.134      Adjusted to redox equilibrium
       Specific Conductance (uS/cm, 25 oC) = 316
                          Density (g/cm3)  =   1.01765
                               Volume (L)  =   1.10697
                        Activity of water  =   0.977
                           Ionic strength  =  8.176e-004
                       Mass of water (kg)  =  1.000e+000
                 Total alkalinity (eq/kg)  =  1.216e-009
                       Total CO2 (mol/kg)  =  1.360e+000
                      Temperature (deg C)  =  25.00
                           Pressure (atm)  = 63.71
                  Electrical balance (eq)  = -1.216e-009
 Percent error, 100*(Cat-|An|)/(Cat+|An|)  =  -0.00
                               Iterations  =  38
                                  Total H  = 1.110124e+002
                                  Total O  = 5.822646e+001

----------------------------Distribution of species----------------------------

                                               Log       Log       Log    mole V
   Species          Molality    Activity  Molality  Activity     Gamma   cm3/mol

   H+             8.176e-004  7.927e-004    -3.087    -3.101    -0.013      0.00
   OH-            1.363e-011  1.319e-011   -10.866   -10.880    -0.014     -3.88
   H2O            5.551e+001  9.769e-001     1.744    -0.010     0.000     18.02
C(-4)        4.162e-018
   CH4            4.162e-018  4.163e-018   -17.381   -17.381     0.000     32.22
C(4)         1.360e+000
   CO2            1.359e+000  1.360e+000     0.133     0.133     0.000     30.40
   HCO3-          8.176e-004  7.920e-004    -3.087    -3.101    -0.014     24.65
   CO3-2          5.725e-011  5.040e-011   -10.242   -10.298    -0.055     -3.87
H(0)         4.452e-014
   H2             2.226e-014  2.226e-014   -13.653   -13.652     0.000     28.58
O(0)         0.000e+000
   O2             0.000e+000  0.000e+000   -65.153   -65.153     0.000     30.31

------------------------------Saturation indices-------------------------------

	Phase               SI   log IAP   log K(298 K,  64 atm)

	CH4(g)          -14.60    -17.38   -2.78  CH4
	CO2(g)            1.57      0.13   -1.44  CO2	 Pressure  63.7 atm, phi 0.666.
	H2(g)           -10.55    -13.65   -3.10  H2
	H2O(g)           -1.49     -0.01    1.48  H2O
	O2(g)           -62.22    -65.15   -2.93  O2


Reaction step 13.

Using solution 1.	
Using gas phase 1.	
Using reaction 1.	

Reaction 1.	

	 2.000e+000 moles of the following reaction have been added:

	                 Relative
	Reactant            moles

	CO2                  1.00000

	                 Relative
	Element             moles
	C                    1.00000
	O                    2.00000

-----------------------------------Gas phase-----------------------------------

Total pressure: 65.30      atmospheres          (Peng-Robinson calculation)
    Gas volume:  1.00e+000 liters
  Molar volume:  1.31e-001 liters/mole
   P * Vm / RT:  0.34867  (Compressibility Factor Z) 

                                                        Moles in gas
                                            ----------------------------------
Component         log P           P    phi     Initial       Final       Delta

CO2(g)             1.81  6.530e+001  0.656  5.667e+000  7.655e+000  1.988e+000

-----------------------------Solution composition------------------------------

	Elements           Molality       Moles

	C                1.372e+000  1.372e+000

----------------------------Description of solution----------------------------

                                       pH  =   3.099      Charge balance
                                       pe  =   2.064      Adjusted to redox equilibrium
       Specific Conductance (uS/cm, 25 oC) = 317
                          Density (g/cm3)  =   1.01787
                               Volume (L)  =   1.10782
                        Activity of water  =   0.977
                           Ionic strength  =  8.217e-004
                       Mass of water (kg)  =  1.000e+000
                 Total alkalinity (eq/kg)  =  1.216e-009
                       Total CO2 (mol/kg)  =  1.372e+000
                      Temperature (deg C)  =  25.00
                           Pressure (atm)  = 65.30
                  Electrical balance (eq)  = -1.216e-009
 Percent error, 100*(Cat-|An|)/(Cat+|An|)  =  -0.00
                               Iterations  =  32
                                  Total H  = 1.110124e+002
                                  Total O  = 5.824995e+001

----------------------------Distribution of species----------------------------

                                               Log       Log       Log    mole V
   Species          Molality    Activity  Molality  Activity     Gamma   cm3/mol

   H+             8.217e-004  7.967e-004    -3.085    -3.099    -0.013      0.00
   OH-            1.358e-011  1.314e-011   -10.867   -10.881    -0.014     -3.87
   H2O            5.551e+001  9.767e-001     1.744    -0.010     0.000     18.02
C(-4)        1.593e-017
   CH4            1.593e-017  1.593e-017   -16.798   -16.798     0.000     32.22
C(4)         1.372e+000
   CO2            1.371e+000  1.371e+000     0.137     0.137     0.000     30.41
   HCO3-          8.217e-004  7.959e-004    -3.085    -3.099    -0.014     24.65
   CO3-2          5.738e-011  5.050e-011   -10.241   -10.297    -0.055     -3.85
H(0)         6.205e-014
   H2             3.102e-014  3.103e-014   -13.508   -13.508     0.000     28.58
O(0)         0.000e+000
   O2             0.000e+000  0.000e+000   -65.443   -65.443     0.000     30.31

------------------------------Saturation indices-------------------------------

	Phase               SI   log IAP   log K(298 K,  65 atm)

	CH4(g)          -14.02    -16.80   -2.78  CH4
	CO2(g)            1.57      0.14   -1.44  CO2	 Pressure  65.3 atm, phi 0.656.
	H2(g)           -10.41    -13.51   -3.10  H2
	H2O(g)           -1.49     -0.01    1.48  H2O
	O2(g)           -62.51    -65.44   -2.93  O2


Reaction step 14.

Using solution 1.	
Using gas phase 1.	
Using reaction 1.	

Reaction 1.	

	 2.000e+000 moles of the following reaction have been added:

	                 Relative
	Reactant            moles

	CO2                  1.00000

	                 Relative
	Element             moles
	C                    1.00000
	O                    2.00000

-----------------------------------Gas phase-----------------------------------

Total pressure: 65.30      atmospheres          (Peng-Robinson calculation)
    Gas volume:  1.00e+000 liters
  Molar volume:  1.04e-001 liters/mole
   P * Vm / RT:  0.27640  (Compressibility Factor Z) 

                                                        Moles in gas
                                            ----------------------------------
Component         log P           P    phi     Initial       Final       Delta

CO2(g)             1.81  6.530e+001  0.656  7.655e+000  9.657e+000  2.002e+000

-----------------------------Solution composition------------------------------

	Elements           Molality       Moles

	C                1.370e+000  1.370e+000

----------------------------Description of solution----------------------------

                                       pH  =   3.099      Charge balance
                                       pe  =   2.106      Adjusted to redox equilibrium
       Specific Conductance (uS/cm, 25 oC) = 317
                          Density (g/cm3)  =   1.01785
                               Volume (L)  =   1.10769
                        Activity of water  =   0.977
                           Ionic strength  =  8.212e-004
                       Mass of water (kg)  =  1.000e+000
                 Total alkalinity (eq/kg)  =  1.216e-009
                       Total CO2 (mol/kg)  =  1.370e+000
                      Temperature (deg C)  =  25.00
                           Pressure (atm)  = 65.30
                  Electrical balance (eq)  = -1.216e-009
 Percent error, 100*(Cat-|An|)/(Cat+|An|)  =  -0.00
                               Iterations  =  50
                                  Total H  = 1.110124e+002
                                  Total O  = 5.824668e+001

----------------------------Distribution of species----------------------------

                                               Log       Log       Log    mole V
   Species          Molality    Activity  Molality  Activity     Gamma   cm3/mol

   H+             8.212e-004  7.962e-004    -3.086    -3.099    -0.013      0.00
   OH-            1.358e-011  1.315e-011   -10.867   -10.881    -0.014     -3.87
   H2O            5.551e+001  9.767e-001     1.744    -0.010     0.000     18.02
C(-4)        7.312e-018
   CH4            7.312e-018  7.314e-018   -17.136   -17.136     0.000     32.22
C(4)         1.370e+000
   CO2            1.369e+000  1.370e+000     0.137     0.137     0.000     30.41
   HCO3-          8.212e-004  7.954e-004    -3.086    -3.099    -0.014     24.65
   CO3-2          5.737e-011  5.050e-011   -10.241   -10.297    -0.055     -3.85
H(0)         5.109e-014
   H2             2.554e-014  2.555e-014   -13.593   -13.593     0.000     28.58
O(0)         0.000e+000
   O2             0.000e+000  0.000e+000   -65.274   -65.274     0.000     30.31

------------------------------Saturation indices-------------------------------

	Phase               SI   log IAP   log K(298 K,  65 atm)

	CH4(g)          -14.36    -17.14   -2.78  CH4
	CO2(g)            1.57      0.14   -1.44  CO2	 Pressure  65.3 atm, phi 0.656.
	H2(g)           -10.49    -13.59   -3.10  H2
	H2O(g)           -1.49     -0.01    1.48  H2O
	O2(g)           -62.34    -65.27   -2.93  O2


Reaction step 15.

Using solution 1.	
Using gas phase 1.	
Using reaction 1.	

Reaction 1.	

	 2.000e+000 moles of the following reaction have been added:

	                 Relative
	Reactant            moles

	CO2                  1.00000

	                 Relative
	Element             moles
	C                    1.00000
	O                    2.00000

-----------------------------------Gas phase-----------------------------------

Total pressure: 65.30      atmospheres          (Peng-Robinson calculation)
    Gas volume:  1.00e+000 liters
  Molar volume:  8.58e-002 liters/mole
   P * Vm / RT:  0.22890  (Compressibility Factor Z) 

                                                        Moles in gas
                                            ----------------------------------
Component         log P           P    phi     Initial       Final       Delta

CO2(g)             1.81  6.530e+001  0.654  9.657e+000  1.166e+001  2.004e+000

-----------------------------Solution composition------------------------------

	Elements           Molality       Moles

	C                1.366e+000  1.366e+000

----------------------------Description of solution----------------------------

                                       pH  =   3.100      Charge balance
                                       pe  =   2.049      Adjusted to redox equilibrium
       Specific Conductance (uS/cm, 25 oC) = 317
                          Density (g/cm3)  =   1.01780
                               Volume (L)  =   1.10739
                        Activity of water  =   0.977
                           Ionic strength  =  8.201e-004
                       Mass of water (kg)  =  1.000e+000
                 Total alkalinity (eq/kg)  =  1.216e-009
                       Total CO2 (mol/kg)  =  1.366e+000
                      Temperature (deg C)  =  25.00
                           Pressure (atm)  = 65.30
                  Electrical balance (eq)  = -1.216e-009
 Percent error, 100*(Cat-|An|)/(Cat+|An|)  =  -0.00
                               Iterations  =  49
                                  Total H  = 1.110124e+002
                                  Total O  = 5.823901e+001

----------------------------Distribution of species----------------------------

                                               Log       Log       Log    mole V
   Species          Molality    Activity  Molality  Activity     Gamma   cm3/mol

   H+             8.201e-004  7.951e-004    -3.086    -3.100    -0.013      0.00
   OH-            1.360e-011  1.317e-011   -10.866   -10.880    -0.014     -3.87
   H2O            5.551e+001  9.768e-001     1.744    -0.010     0.000     18.02
C(-4)        2.069e-017
   CH4            2.069e-017  2.070e-017   -16.684   -16.684     0.000     32.22
C(4)         1.366e+000
   CO2            1.366e+000  1.366e+000     0.135     0.135     0.000     30.41
   HCO3-          8.201e-004  7.944e-004    -3.086    -3.100    -0.014     24.65
   CO3-2          5.737e-011  5.050e-011   -10.241   -10.297    -0.055     -3.86
H(0)         6.631e-014
   H2             3.315e-014  3.316e-014   -13.479   -13.479     0.000     28.58
O(0)         0.000e+000
   O2             0.000e+000  0.000e+000   -65.500   -65.500     0.000     30.31

------------------------------Saturation indices-------------------------------

	Phase               SI   log IAP   log K(298 K,  65 atm)

	CH4(g)          -13.91    -16.68   -2.78  CH4
	CO2(g)            1.57      0.14   -1.44  CO2	 Pressure  65.3 atm, phi 0.654.
	H2(g)           -10.38    -13.48   -3.10  H2
	H2O(g)           -1.49     -0.01    1.48  H2O
	O2(g)           -62.57    -65.50   -2.93  O2


Reaction step 16.

Using solution 1.	
Using gas phase 1.	
Using reaction 1.	

Reaction 1.	

	 2.000e+000 moles of the following reaction have been added:

	                 Relative
	Reactant            moles

	CO2                  1.00000

	                 Relative
	Element             moles
	C                    1.00000
	O                    2.00000

-----------------------------------Gas phase-----------------------------------

Total pressure: 65.30      atmospheres          (Peng-Robinson calculation)
    Gas volume:  1.00e+000 liters
  Molar volume:  7.32e-002 liters/mole
   P * Vm / RT:  0.19534  (Compressibility Factor Z) 

                                                        Moles in gas
                                            ----------------------------------
Component         log P           P    phi     Initial       Final       Delta

CO2(g)             1.81  6.530e+001  0.652  1.166e+001  1.366e+001  2.003e+000

-----------------------------Solution composition------------------------------

	Elements           Molality       Moles

	C                1.363e+000  1.363e+000

----------------------------Description of solution----------------------------

                                       pH  =   3.100      Charge balance
                                       pe  =   2.007      Adjusted to redox equilibrium
       Specific Conductance (uS/cm, 25 oC) = 316
                          Density (g/cm3)  =   1.01776
                               Volume (L)  =   1.10713
                        Activity of water  =   0.977
                           Ionic strength  =  8.191e-004
                       Mass of water (kg)  =  1.000e+000
                 Total alkalinity (eq/kg)  =  1.216e-009
                       Total CO2 (mol/kg)  =  1.363e+000
                      Temperature (deg C)  =  25.00
                           Pressure (atm)  = 65.30
                  Electrical balance (eq)  = -1.216e-009
 Percent error, 100*(Cat-|An|)/(Cat+|An|)  =  -0.00
                               Iterations  =  52
                                  Total H  = 1.110124e+002
                                  Total O  = 5.823222e+001

----------------------------Distribution of species----------------------------

                                               Log       Log       Log    mole V
   Species          Molality    Activity  Molality  Activity     Gamma   cm3/mol

   H+             8.191e-004  7.942e-004    -3.087    -3.100    -0.013      0.00
   OH-            1.362e-011  1.319e-011   -10.866   -10.880    -0.014     -3.87
   H2O            5.551e+001  9.768e-001     1.744    -0.010     0.000     18.02
C(-4)        4.420e-017
   CH4            4.420e-017  4.421e-017   -16.355   -16.355     0.000     32.22
C(4)         1.363e+000
   CO2            1.362e+000  1.362e+000     0.134     0.134     0.000     30.41
   HCO3-          8.191e-004  7.934e-004    -3.087    -3.101    -0.014     24.65
   CO3-2          5.736e-011  5.050e-011   -10.241   -10.297    -0.055     -3.86
H(0)         8.022e-014
   H2             4.011e-014  4.012e-014   -13.397   -13.397     0.000     28.58
O(0)         0.000e+000
   O2             0.000e+000  0.000e+000   -65.666   -65.666     0.000     30.31

------------------------------Saturation indices-------------------------------

	Phase               SI   log IAP   log K(298 K,  65 atm)

	CH4(g)          -13.58    -16.35   -2.78  CH4
	CO2(g)            1.57      0.13   -1.44  CO2	 Pressure  65.3 atm, phi 0.652.
	H2(g)           -10.30    -13.40   -3.10  H2
	H2O(g)           -1.49     -0.01    1.48  H2O
	O2(g)           -62.73    -65.67   -2.93  O2


Reaction step 17.

Using solution 1.	
Using gas phase 1.	
Using reaction 1.	

Reaction 1.	

	 2.000e+000 moles of the following reaction have been added:

	                 Relative
	Reactant            moles

	CO2                  1.00000

	                 Relative
	Element             moles
	C                    1.00000
	O                    2.00000

-----------------------------------Gas phase-----------------------------------

Total pressure: 71.90      atmospheres          (Peng-Robinson calculation)
    Gas volume:  1.00e+000 liters
  Molar volume:  6.39e-002 liters/mole
   P * Vm / RT:  0.18778  (Compressibility Factor Z) 

                                                        Moles in gas
                                            ----------------------------------
Component         log P           P    phi     Initial       Final       Delta

CO2(g)             1.86  7.190e+001  0.603  1.366e+001  1.565e+001  1.988e+000

-----------------------------Solution composition------------------------------

	Elements           Molality       Moles

	C                1.376e+000  1.375e+000

----------------------------Description of solution----------------------------

                                       pH  =   3.097      Charge balance
                                       pe  =   1.982      Adjusted to redox equilibrium
       Specific Conductance (uS/cm, 25 oC) = 319
                          Density (g/cm3)  =   1.01818
                               Volume (L)  =   1.10781
                        Activity of water  =   0.977
                           Ionic strength  =  8.255e-004
                       Mass of water (kg)  =  1.000e+000
                 Total alkalinity (eq/kg)  =  1.216e-009
                       Total CO2 (mol/kg)  =  1.376e+000
                      Temperature (deg C)  =  25.00
                           Pressure (atm)  = 71.90
                  Electrical balance (eq)  = -1.216e-009
 Percent error, 100*(Cat-|An|)/(Cat+|An|)  =  -0.00
                               Iterations  =  56
                                  Total H  = 1.110124e+002
                                  Total O  = 5.825720e+001

----------------------------Distribution of species----------------------------

                                               Log       Log       Log    mole V
   Species          Molality    Activity  Molality  Activity     Gamma   cm3/mol

   H+             8.255e-004  8.003e-004    -3.083    -3.097    -0.013      0.00
   OH-            1.359e-011  1.316e-011   -10.867   -10.881    -0.014     -3.85
   H2O            5.551e+001  9.766e-001     1.744    -0.010     0.000     18.01
C(-4)        7.446e-017
   CH4            7.446e-017  7.448e-017   -16.128   -16.128     0.000     32.22
C(4)         1.376e+000
   CO2            1.375e+000  1.375e+000     0.138     0.138     0.000     30.42
   HCO3-          8.255e-004  7.995e-004    -3.083    -3.097    -0.014     24.66
   CO3-2          5.782e-011  5.088e-011   -10.238   -10.293    -0.056     -3.80
H(0)         9.070e-014
   H2             4.535e-014  4.536e-014   -13.343   -13.343     0.000     28.57
O(0)         0.000e+000
   O2             0.000e+000  0.000e+000   -65.779   -65.779     0.000     30.30

------------------------------Saturation indices-------------------------------

	Phase               SI   log IAP   log K(298 K,  72 atm)

	CH4(g)          -13.36    -16.13   -2.77  CH4
	CO2(g)            1.57      0.14   -1.43  CO2	 Pressure  71.9 atm, phi 0.603.
	H2(g)           -10.24    -13.34   -3.10  H2
	H2O(g)           -1.49     -0.01    1.48  H2O
	O2(g)           -62.84    -65.78   -2.94  O2


Reaction step 18.

Using solution 1.	
Using gas phase 1.	
Using reaction 1.	

Reaction 1.	

	 2.000e+000 moles of the following reaction have been added:

	                 Relative
	Reactant            moles

	CO2                  1.00000

	                 Relative
	Element             moles
	C                    1.00000
	O                    2.00000

-----------------------------------Gas phase-----------------------------------

Total pressure: 96.43      atmospheres          (Peng-Robinson calculation)
    Gas volume:  1.00e+000 liters
  Molar volume:  5.68e-002 liters/mole
   P * Vm / RT:  0.22380  (Compressibility Factor Z) 

                                                        Moles in gas
                                            ----------------------------------
Component         log P           P    phi     Initial       Final       Delta

CO2(g)             1.98  9.643e+001  0.477  1.565e+001  1.761e+001  1.959e+000

-----------------------------Solution composition------------------------------

	Elements           Molality       Moles

	C                1.416e+000  1.416e+000

----------------------------Description of solution----------------------------

                                       pH  =   3.085      Charge balance
                                       pe  =   1.954      Adjusted to redox equilibrium
       Specific Conductance (uS/cm, 25 oC) = 327
                          Density (g/cm3)  =   1.01968
                               Volume (L)  =   1.10989
                        Activity of water  =   0.976
                           Ionic strength  =  8.477e-004
                       Mass of water (kg)  =  1.000e+000
                 Total alkalinity (eq/kg)  =  1.216e-009
                       Total CO2 (mol/kg)  =  1.416e+000
                      Temperature (deg C)  =  25.00
                           Pressure (atm)  = 96.43
                  Electrical balance (eq)  = -1.216e-009
 Percent error, 100*(Cat-|An|)/(Cat+|An|)  =  -0.00
                               Iterations  =  64
                                  Total H  = 1.110124e+002
                                  Total O  = 5.833869e+001

----------------------------Distribution of species----------------------------

                                               Log       Log       Log    mole V
   Species          Molality    Activity  Molality  Activity     Gamma   cm3/mol

   H+             8.477e-004  8.215e-004    -3.072    -3.085    -0.014      0.00
   OH-            1.353e-011  1.309e-011   -10.869   -10.883    -0.014     -3.76
   H2O            5.551e+001  9.759e-001     1.744    -0.011     0.000     17.99
C(-4)        1.516e-016
   CH4            1.516e-016  1.517e-016   -15.819   -15.819     0.000     32.22
C(4)         1.416e+000
   CO2            1.415e+000  1.416e+000     0.151     0.151     0.000     30.48
   HCO3-          8.477e-004  8.207e-004    -3.072    -3.086    -0.014     24.68
   CO3-2          5.954e-011  5.231e-011   -10.225   -10.281    -0.056     -3.61
H(0)         1.055e-013
   H2             5.274e-014  5.275e-014   -13.278   -13.278     0.000     28.56
O(0)         0.000e+000
   O2             0.000e+000  0.000e+000   -65.933   -65.933     0.000     30.26

------------------------------Saturation indices-------------------------------

	Phase               SI   log IAP   log K(298 K,  96 atm)

	CH4(g)          -13.07    -15.82   -2.75  CH4
	CO2(g)            1.57      0.15   -1.42  CO2	 Pressure  96.4 atm, phi 0.477.
	H2(g)           -10.18    -13.28   -3.10  H2
	H2O(g)           -1.48     -0.01    1.47  H2O
	O2(g)           -62.98    -65.93   -2.95  O2


Reaction step 19.

Using solution 1.	
Using gas phase 1.	
Using reaction 1.	

Reaction 1.	

	 2.000e+000 moles of the following reaction have been added:

	                 Relative
	Reactant            moles

	CO2                  1.00000

	                 Relative
	Element             moles
	C                    1.00000
	O                    2.00000

-----------------------------------Gas phase-----------------------------------

Total pressure: 142.97      atmospheres          (Peng-Robinson calculation)
    Gas volume:  1.00e+000 liters
  Molar volume:  5.12e-002 liters/mole
   P * Vm / RT:  0.29893  (Compressibility Factor Z) 

                                                        Moles in gas
                                            ----------------------------------
Component         log P           P    phi     Initial       Final       Delta

CO2(g)             2.16  1.430e+002  0.356  1.761e+001  1.955e+001  1.937e+000

-----------------------------Solution composition------------------------------

	Elements           Molality       Moles

	C                1.479e+000  1.479e+000

----------------------------Description of solution----------------------------

                                       pH  =   3.066      Charge balance
                                       pe  =   2.013      Adjusted to redox equilibrium
       Specific Conductance (uS/cm, 25 oC) = 342
                          Density (g/cm3)  =   1.02233
                               Volume (L)  =   1.11273
                        Activity of water  =   0.975
                           Ionic strength  =  8.862e-004
                       Mass of water (kg)  =  1.000e+000
                 Total alkalinity (eq/kg)  =  1.216e-009
                       Total CO2 (mol/kg)  =  1.479e+000
                      Temperature (deg C)  =  25.00
                           Pressure (atm)  = 142.97
                  Electrical balance (eq)  = -1.216e-009
 Percent error, 100*(Cat-|An|)/(Cat+|An|)  =  -0.00
                               Iterations  =  88
                                  Total H  = 1.110124e+002
                                  Total O  = 5.846425e+001

----------------------------Distribution of species----------------------------

                                               Log       Log       Log    mole V
   Species          Molality    Activity  Molality  Activity     Gamma   cm3/mol

   H+             8.862e-004  8.584e-004    -3.052    -3.066    -0.014      0.00
   OH-            1.347e-011  1.303e-011   -10.871   -10.885    -0.015     -3.60
   H2O            5.551e+001  9.748e-001     1.744    -0.011     0.000     17.96
C(-4)        7.121e-017
   CH4            7.121e-017  7.123e-017   -16.147   -16.147     0.000     32.22
C(4)         1.479e+000
   CO2            1.478e+000  1.478e+000     0.170     0.170     0.000     30.58
   HCO3-          8.862e-004  8.574e-004    -3.052    -3.067    -0.014     24.73
   CO3-2          6.287e-011  5.510e-011   -10.202   -10.259    -0.057     -3.24
H(0)         8.323e-014
   H2             4.161e-014  4.162e-014   -13.381   -13.381     0.000     28.54
O(0)         0.000e+000
   O2             0.000e+000  0.000e+000   -65.770   -65.770     0.000     30.20

------------------------------Saturation indices-------------------------------

	Phase               SI   log IAP   log K(298 K, 143 atm)

	CH4(g)          -13.45    -16.15   -2.70  CH4
	CO2(g)            1.58      0.17   -1.41  CO2	 Pressure 143.0 atm, phi 0.356.
	H2(g)           -10.28    -13.38   -3.10  H2
	H2O(g)           -1.47     -0.01    1.46  H2O
	O2(g)           -62.79    -65.77   -2.98  O2


Reaction step 20.

WARNING: Numerical method failed, switching to numerical derivatives.
WARNING: Maximum iterations exceeded, 100

WARNING: Numerical method failed with this set of convergence parameters.

WARNING: Trying smaller step size, pe step size 10, 5 ... 

Using solution 1.	
Using gas phase 1.	
Using reaction 1.	

Reaction 1.	

	 2.000e+000 moles of the following reaction have been added:

	                 Relative
	Reactant            moles

	CO2                  1.00000

	                 Relative
	Element             moles
	C                    1.00000
	O                    2.00000

-----------------------------------Gas phase-----------------------------------

Total pressure: 222.20      atmospheres          (Peng-Robinson calculation)
    Gas volume:  1.00e+000 liters
  Molar volume:  4.66e-002 liters/mole
   P * Vm / RT:  0.42317  (Compressibility Factor Z) 

                                                        Moles in gas
                                            ----------------------------------
Component         log P           P    phi     Initial       Final       Delta

CO2(g)             2.35  2.222e+002  0.268  1.955e+001  2.146e+001  1.913e+000

-----------------------------Solution composition------------------------------

	Elements           Molality       Moles

	C                1.566e+000  1.566e+000

----------------------------Description of solution----------------------------

                                       pH  =   3.038      Charge balance
                                       pe  =   2.165      Adjusted to redox equilibrium
       Specific Conductance (uS/cm, 25 oC) = 366
                          Density (g/cm3)  =   1.02653
                               Volume (L)  =   1.11602
                        Activity of water  =   0.973
                           Ionic strength  =  9.478e-004
                       Mass of water (kg)  =  1.000e+000
                 Total alkalinity (eq/kg)  =  1.216e-009
                       Total CO2 (mol/kg)  =  1.566e+000
                      Temperature (deg C)  =  25.00
                           Pressure (atm)  = 222.20
                  Electrical balance (eq)  = -1.216e-009
 Percent error, 100*(Cat-|An|)/(Cat+|An|)  =  -0.00
                               Iterations  =   9
                                  Total H  = 1.110124e+002
                                  Total O  = 5.863738e+001

----------------------------Distribution of species----------------------------

                                               Log       Log       Log    mole V
   Species          Molality    Activity  Molality  Activity     Gamma   cm3/mol

   H+             9.478e-004  9.173e-004    -3.023    -3.038    -0.014      0.00
   OH-            1.347e-011  1.301e-011   -10.871   -10.886    -0.015     -3.33
   H2O            5.551e+001  9.734e-001     1.744    -0.012     0.000     17.89
C(-4)        6.956e-018
   CH4            6.956e-018  6.958e-018   -17.158   -17.158     0.000     32.22
C(4)         1.566e+000
   CO2            1.565e+000  1.565e+000     0.194     0.195     0.000     30.75
   HCO3-          9.479e-004  9.162e-004    -3.023    -3.038    -0.015     24.81
   CO3-2          6.876e-011  6.004e-011   -10.163   -10.222    -0.059     -2.64
H(0)         4.307e-014
   H2             2.153e-014  2.154e-014   -13.667   -13.667     0.000     28.51
O(0)         0.000e+000
   O2             0.000e+000  0.000e+000   -65.271   -65.271     0.000     30.09

------------------------------Saturation indices-------------------------------

	Phase               SI   log IAP   log K(298 K, 222 atm)

	CH4(g)          -14.54    -17.16   -2.62  CH4
	CO2(g)            1.57      0.19   -1.38  CO2	 Pressure 222.2 atm, phi 0.268.
	H2(g)           -10.57    -13.67   -3.10  H2
	H2O(g)           -1.44     -0.01    1.43  H2O
	O2(g)           -62.24    -65.27   -3.03  O2


Reaction step 21.

Using solution 1.	
Using gas phase 1.	
Using reaction 1.	

Reaction 1.	

	 2.000e+000 moles of the following reaction have been added:

	                 Relative
	Reactant            moles

	CO2                  1.00000

	                 Relative
	Element             moles
	C                    1.00000
	O                    2.00000

-----------------------------------Gas phase-----------------------------------

Total pressure: 349.99      atmospheres          (Peng-Robinson calculation)
    Gas volume:  1.00e+000 liters
  Molar volume:  4.28e-002 liters/mole
   P * Vm / RT:  0.61262  (Compressibility Factor Z) 

                                                        Moles in gas
                                            ----------------------------------
Component         log P           P    phi     Initial       Final       Delta

CO2(g)             2.54  3.500e+002  0.215  2.146e+001  2.335e+001  1.889e+000

-----------------------------Solution composition------------------------------

	Elements           Molality       Moles

	C                1.676e+000  1.676e+000

----------------------------Description of solution----------------------------

                                       pH  =   2.996      Charge balance
                                       pe  =  16.056      Adjusted to redox equilibrium
       Specific Conductance (uS/cm, 25 oC) = 403
                          Density (g/cm3)  =   1.03280
                               Volume (L)  =   1.11922
                        Activity of water  =   0.971
                           Ionic strength  =  1.044e-003
                       Mass of water (kg)  =  1.000e+000
                 Total alkalinity (eq/kg)  =  1.215e-009
                       Total CO2 (mol/kg)  =  1.676e+000
                      Temperature (deg C)  =  25.00
                           Pressure (atm)  = 349.99
                  Electrical balance (eq)  = -1.215e-009
 Percent error, 100*(Cat-|An|)/(Cat+|An|)  =  -0.00
                               Iterations  =  38
                                  Total H  = 1.110124e+002
                                  Total O  = 5.885878e+001

----------------------------Distribution of species----------------------------

                                               Log       Log       Log    mole V
   Species          Molality    Activity  Molality  Activity     Gamma   cm3/mol

   H+             1.044e-003  1.009e-003    -2.981    -2.996    -0.015      0.00
   OH-            1.357e-011  1.309e-011   -10.867   -10.883    -0.016     -2.93
   H2O            5.551e+001  9.715e-001     1.744    -0.013     0.000     17.80
C(-4)        0.000e+000
   CH4            0.000e+000  0.000e+000  -128.006  -128.006     0.000     32.22
C(4)         1.676e+000
   CO2            1.675e+000  1.676e+000     0.224     0.224     0.000     31.00
   HCO3-          1.044e-003  1.008e-003    -2.981    -2.996    -0.015     24.92
   CO3-2          7.891e-011  6.851e-011   -10.103   -10.164    -0.061     -1.74
H(0)         0.000e+000
   H2             0.000e+000  0.000e+000   -41.431   -41.431     0.000     28.46
O(0)         2.753e-010
   O2             1.376e-010  1.377e-010    -9.861    -9.861     0.000     29.93

[...]
   OH-            5.818e-009  5.607e-009    -8.235    -8.251    -0.016    -12.78
   H2O            5.551e+001  9.718e-001     1.744    -0.012     0.000     19.22
C(-4)        0.000e+000
   CH4            0.000e+000  0.000e+000   -77.190   -77.190     0.000     32.22
C(4)         1.660e+000
   CO2            1.659e+000  1.660e+000     0.220     0.220     0.000     25.26
   HCO3-          6.266e-004  6.043e-004    -3.203    -3.219    -0.016     22.00
   CO3-2          7.616e-011  6.586e-011   -10.118   -10.181    -0.063    -17.42
H(0)         4.517e-026
   H2             2.259e-026  2.259e-026   -25.646   -25.646     0.000     28.40
O(0)         2.284e-013
   O2             1.142e-013  1.142e-013   -12.942   -12.942     0.000     34.35

------------------------------Saturation indices-------------------------------

	Phase               SI   log IAP   log K(423 K, 385 atm)

	CH4(g)          -74.58    -77.19   -2.61  CH4
	CO2(g)            2.10      0.22   -1.88  CO2	 Pressure 385.3 atm, phi 0.649.
	H2(g)           -22.67    -25.65   -2.98  H2
	H2O(g)            0.74     -0.01   -0.75  H2O
	O2(g)            -9.72    -12.94   -3.22  O2


Reaction step 17.

Using solution 1.	
Using gas phase 1.	
Using reaction 1.	

Reaction 1.	

	 2.000e+000 moles of the following reaction have been added:

	                 Relative
	Reactant            moles

	CO2                  1.00000

	                 Relative
	Element             moles
	C                    1.00000
	O                    2.00000

-----------------------------------Gas phase-----------------------------------

Total pressure: 469.68      atmospheres          (Peng-Robinson calculation)
    Gas volume:  1.00e+000 liters
  Molar volume:  6.58e-002 liters/mole
   P * Vm / RT:  0.88939  (Compressibility Factor Z) 

                                                        Moles in gas
                                            ----------------------------------
Component         log P           P    phi     Initial       Final       Delta

CO2(g)             2.67  4.697e+002  0.631  1.337e+001  1.521e+001  1.842e+000

-----------------------------Solution composition------------------------------

	Elements           Molality       Moles

	C                1.818e+000  1.818e+000

----------------------------Description of solution----------------------------

                                       pH  =   3.201      Charge balance
                                       pe  =   7.780      Adjusted to redox equilibrium
       Specific Conductance (uS/cm, 150 oC) = 1240
                          Density (g/cm3)  =   0.97277
                               Volume (L)  =   1.20187
                        Activity of water  =   0.969
                           Ionic strength  =  6.645e-004
                       Mass of water (kg)  =  1.000e+000
                 Total alkalinity (eq/kg)  =  2.360e-005
                       Total CO2 (mol/kg)  =  1.818e+000
                      Temperature (deg C)  = 150.00
                           Pressure (atm)  = 469.68
                  Electrical balance (eq)  = -2.360e-005
 Percent error, 100*(Cat-|An|)/(Cat+|An|)  =  -1.78
                               Iterations  =  97
                                  Total H  = 1.110125e+002
                                  Total O  = 5.914312e+001

----------------------------Distribution of species----------------------------

                                               Log       Log       Log    mole V
   Species          Molality    Activity  Molality  Activity     Gamma   cm3/mol

   H+             6.527e-004  6.294e-004    -3.185    -3.201    -0.016      0.00
   OH-            5.812e-009  5.595e-009    -8.236    -8.252    -0.017    -12.94
   H2O            5.551e+001  9.691e-001     1.744    -0.014     0.000     19.13
C(-4)        0.000e+000
   CH4            0.000e+000  0.000e+000   -77.121   -77.121     0.000     32.22
C(4)         1.818e+000
   CO2            1.818e+000  1.818e+000     0.260     0.260     0.000     26.55
   HCO3-          6.763e-004  6.514e-004    -3.170    -3.186    -0.016     22.43
   CO3-2          8.278e-011  7.128e-011   -10.082   -10.147    -0.065    -15.96
H(0)         4.383e-026
   H2             2.191e-026  2.192e-026   -25.659   -25.659     0.000     28.37
O(0)         2.128e-013
   O2             1.064e-013  1.064e-013   -12.973   -12.973     0.000     34.06

------------------------------Saturation indices-------------------------------

	Phase               SI   log IAP   log K(423 K, 470 atm)

	CH4(g)          -74.58    -77.12   -2.54  CH4
	CO2(g)            2.11      0.26   -1.85  CO2	 Pressure 469.7 atm, phi 0.631.
	H2(g)           -22.68    -25.66   -2.98  H2
	H2O(g)            0.76     -0.01   -0.77  H2O
	O2(g)            -9.71    -12.97   -3.26  O2


Reaction step 18.

WARNING: Numerical method failed, switching to numerical derivatives.
WARNING: Maximum iterations exceeded, 100

WARNING: Numerical method failed with this set of convergence parameters.

WARNING: Trying smaller step size, pe step size 10, 5 ... 

Using solution 1.	
Using gas phase 1.	
Using reaction 1.	

Reaction 1.	

	 2.000e+000 moles of the following reaction have been added:

	                 Relative
	Reactant            moles

	CO2                  1.00000

	                 Relative
	Element             moles
	C                    1.00000
	O                    2.00000

-----------------------------------Gas phase-----------------------------------

Total pressure: 576.74      atmospheres          (Peng-Robinson calculation)
    Gas volume:  1.00e+000 liters
  Molar volume:  5.87e-002 liters/mole
   P * Vm / RT:  0.97417  (Compressibility Factor Z) 

                                                        Moles in gas
                                            ----------------------------------
Component         log P           P    phi     Initial       Final       Delta

CO2(g)             2.76  5.767e+002  0.622  1.521e+001  1.705e+001  1.841e+000

-----------------------------Solution composition------------------------------

	Elements           Molality       Moles

	C                1.977e+000  1.977e+000

----------------------------Description of solution----------------------------

                                       pH  =   3.164      Charge balance
                                       pe  =   8.336      Adjusted to redox equilibrium
       Specific Conductance (uS/cm, 150 oC) = 1350
                          Density (g/cm3)  =   0.97775
                               Volume (L)  =   1.21085
                        Activity of water  =   0.966
                           Ionic strength  =  7.234e-004
                       Mass of water (kg)  =  1.000e+000
                 Total alkalinity (eq/kg)  =  2.360e-005
                       Total CO2 (mol/kg)  =  1.977e+000
                      Temperature (deg C)  = 150.00
                           Pressure (atm)  = 576.74
                  Electrical balance (eq)  = -2.360e-005
 Percent error, 100*(Cat-|An|)/(Cat+|An|)  =  -1.63
                               Iterations  =  15
                                  Total H  = 1.110125e+002
                                  Total O  = 5.946053e+001

----------------------------Distribution of species----------------------------

                                               Log       Log       Log    mole V
   Species          Molality    Activity  Molality  Activity     Gamma   cm3/mol

   H+             7.116e-004  6.855e-004    -3.148    -3.164    -0.016      0.00
   OH-            5.891e-009  5.664e-009    -8.230    -8.247    -0.017    -13.13
   H2O            5.551e+001  9.664e-001     1.744    -0.015     0.000     19.03
C(-4)        0.000e+000
   CH4            0.000e+000  0.000e+000   -81.281   -81.281     0.000     32.22
C(4)         1.977e+000
   CO2            1.976e+000  1.977e+000     0.296     0.296     0.000     28.08
   HCO3-          7.352e-004  7.074e-004    -3.134    -3.150    -0.017     22.95
   CO3-2          9.150e-011  7.841e-011   -10.039   -10.106    -0.067    -14.24
H(0)         3.680e-027
   H2             1.840e-027  1.840e-027   -26.735   -26.735     0.000     28.33
O(0)         2.562e-011
   O2             1.281e-011  1.281e-011   -10.892   -10.892     0.000     33.72

------------------------------Saturation indices-------------------------------

	Phase               SI   log IAP   log K(423 K, 577 atm)

	CH4(g)          -78.83    -81.28   -2.46  CH4
	CO2(g)            2.11      0.30   -1.82  CO2	 Pressure 576.7 atm, phi 0.622.
	H2(g)           -23.76    -26.74   -2.98  H2
	H2O(g)            0.78     -0.01   -0.80  H2O
	O2(g)            -7.58    -10.89   -3.31  O2


Reaction step 19.

Using solution 1.	
Using gas phase 1.	
Using reaction 1.	

Reaction 1.	

	 2.000e+000 moles of the following reaction have been added:

	                 Relative
	Reactant            moles

	CO2                  1.00000

	                 Relative
	Element             moles
	C                    1.00000
	O                    2.00000

-----------------------------------Gas phase-----------------------------------

Total pressure: 716.33      atmospheres          (Peng-Robinson calculation)
    Gas volume:  1.00e+000 liters
  Molar volume:  5.29e-002 liters/mole
   P * Vm / RT:  1.09144  (Compressibility Factor Z) 

                                                        Moles in gas
                                            ----------------------------------
Component         log P           P    phi     Initial       Final       Delta

CO2(g)             2.86  7.163e+002  0.626  1.705e+001  1.890e+001  1.851e+000

-----------------------------Solution composition------------------------------

	Elements           Molality       Moles

	C                2.126e+000  2.126e+000

----------------------------Description of solution----------------------------

                                       pH  =   3.122      Charge balance
                                       pe  =   8.376      Adjusted to redox equilibrium
       Specific Conductance (uS/cm, 150 oC) = 1487
                          Density (g/cm3)  =   0.98278
                               Volume (L)  =   1.21871
                        Activity of water  =   0.964
                           Ionic strength  =  7.964e-004
                       Mass of water (kg)  =  1.000e+000
                 Total alkalinity (eq/kg)  =  2.360e-005
                       Total CO2 (mol/kg)  =  2.126e+000
                      Temperature (deg C)  = 150.00
                           Pressure (atm)  = 716.33
                  Electrical balance (eq)  = -2.360e-005
 Percent error, 100*(Cat-|An|)/(Cat+|An|)  =  -1.48
                               Iterations  =  27
                                  Total H  = 1.110125e+002
                                  Total O  = 5.975755e+001

----------------------------Distribution of species----------------------------

                                               Log       Log       Log    mole V
   Species          Molality    Activity  Molality  Activity     Gamma   cm3/mol

   H+             7.846e-004  7.549e-004    -3.105    -3.122    -0.017      0.00
   OH-            6.095e-009  5.852e-009    -8.215    -8.233    -0.018    -13.37
   H2O            5.551e+001  9.639e-001     1.744    -0.016     0.000     18.90
C(-4)        0.000e+000
   CH4            0.000e+000  0.000e+000   -81.289   -81.289     0.000     32.22
C(4)         2.126e+000
   CO2            2.125e+000  2.125e+000     0.327     0.327     0.000     29.92
   HCO3-          8.082e-004  7.766e-004    -3.092    -3.110    -0.017     23.56
   CO3-2          1.034e-010  8.813e-011    -9.985   -10.055    -0.069    -12.19
H(0)         3.312e-027
   H2             1.656e-027  1.656e-027   -26.781   -26.781     0.000     28.29
O(0)         2.562e-011
   O2             1.281e-011  1.281e-011   -10.892   -10.892     0.000     33.30

------------------------------Saturation indices-------------------------------

	Phase               SI   log IAP   log K(423 K, 716 atm)

	CH4(g)          -78.94    -81.29   -2.35  CH4
	CO2(g)            2.11      0.33   -1.78  CO2	 Pressure 716.3 atm, phi 0.626.
	H2(g)           -23.80    -26.78   -2.98  H2
	H2O(g)            0.81     -0.02   -0.83  H2O
	O2(g)            -7.51    -10.89   -3.38  O2


Reaction step 20.

Using solution 1.	
Using gas phase 1.	
Using reaction 1.	

Reaction 1.	

	 2.000e+000 moles of the following reaction have been added:

	                 Relative
	Reactant            moles

	CO2                  1.00000

	                 Relative
	Element             moles
	C                    1.00000
	O                    2.00000

-----------------------------------Gas phase-----------------------------------

Total pressure: 904.94      atmospheres          (Peng-Robinson calculation)
    Gas volume:  1.00e+000 liters
  Molar volume:  4.81e-002 liters/mole
   P * Vm / RT:  1.25369  (Compressibility Factor Z) 

                                                        Moles in gas
                                            ----------------------------------
Component         log P           P    phi     Initial       Final       Delta

CO2(g)             2.96  9.049e+002  0.652  1.890e+001  2.079e+001  1.887e+000

-----------------------------Solution composition------------------------------

	Elements           Molality       Moles

	C                2.239e+000  2.239e+000

----------------------------Description of solution----------------------------

                                       pH  =   3.073      Charge balance
                                       pe  =   8.423      Adjusted to redox equilibrium
       Specific Conductance (uS/cm, 150 oC) = 1666
                          Density (g/cm3)  =   0.98780
                               Volume (L)  =   1.22320
                        Activity of water  =   0.962
                           Ionic strength  =  8.916e-004
                       Mass of water (kg)  =  1.000e+000
                 Total alkalinity (eq/kg)  =  2.360e-005
                       Total CO2 (mol/kg)  =  2.239e+000
                      Temperature (deg C)  = 150.00
                           Pressure (atm)  = 904.94
                  Electrical balance (eq)  = -2.360e-005
 Percent error, 100*(Cat-|An|)/(Cat+|An|)  =  -1.32
                               Iterations  =  30
                                  Total H  = 1.110125e+002
                                  Total O  = 5.998439e+001

----------------------------Distribution of species----------------------------

                                               Log       Log       Log    mole V
   Species          Molality    Activity  Molality  Activity     Gamma   cm3/mol

   H+             8.798e-004  8.452e-004    -3.056    -3.073    -0.017      0.00
   OH-            6.510e-009  6.240e-009    -8.186    -8.205    -0.018    -13.69
   H2O            5.551e+001  9.619e-001     1.744    -0.017     0.000     18.74
C(-4)        0.000e+000
   CH4            0.000e+000  0.000e+000   -81.309   -81.309     0.000     32.22
C(4)         2.239e+000
   CO2            2.238e+000  2.239e+000     0.350     0.350     0.000     32.18
   HCO3-          9.034e-004  8.666e-004    -3.044    -3.062    -0.018     24.29
   CO3-2          1.204e-010  1.020e-010    -9.919    -9.991    -0.072     -9.74
H(0)         2.880e-027
   H2             1.440e-027  1.440e-027   -26.842   -26.842     0.000     28.23
O(0)         2.563e-011
   O2             1.281e-011  1.282e-011   -10.892   -10.892     0.000     32.80

------------------------------Saturation indices-------------------------------

	Phase               SI   log IAP   log K(423 K, 905 atm)

	CH4(g)          -79.09    -81.31   -2.22  CH4
	CO2(g)            2.08      0.35   -1.73  CO2	 Pressure 904.9 atm, phi 0.652.
	H2(g)           -23.86    -26.84   -2.98  H2
	H2O(g)            0.85     -0.02   -0.87  H2O
	O2(g)            -7.43    -10.89   -3.46  O2


Reaction step 21.

Using solution 1.	
Using gas phase 1.	
Using reaction 1.	

Reaction 1.	

	 2.000e+000 moles of the following reaction have been added:

	                 Relative
	Reactant            moles

	CO2                  1.00000

	                 Relative
	Element             moles
	C                    1.00000
	O                    2.00000

-----------------------------------Gas phase-----------------------------------

Total pressure: 1175.28      atmospheres          (Peng-Robinson calculation)
    Gas volume:  1.00e+000 liters
  Molar volume:  4.39e-002 liters/mole
   P * Vm / RT:  1.48682  (Compressibility Factor Z) 

                                                        Moles in gas
                                            ----------------------------------
Component         log P           P    phi     Initial       Final       Delta

CO2(g)             3.07  1.175e+003  0.717  2.079e+001  2.276e+001  1.977e+000

-----------------------------Solution composition------------------------------

	Elements           Molality       Moles

	C                2.262e+000  2.262e+000

----------------------------Description of solution----------------------------

                                       pH  =   3.012      Charge balance
                                       pe  =   8.479      Adjusted to redox equilibrium
       Specific Conductance (uS/cm, 150 oC) = 1916
                          Density (g/cm3)  =   0.99296
                               Volume (L)  =   1.21902
                        Activity of water  =   0.962
                           Ionic strength  =  1.025e-003
                       Mass of water (kg)  =  1.000e+000
                 Total alkalinity (eq/kg)  =  2.360e-005
                       Total CO2 (mol/kg)  =  2.262e+000
                      Temperature (deg C)  = 150.00
                           Pressure (atm)  = 1175.28
                  Electrical balance (eq)  = -2.360e-005
 Percent error, 100*(Cat-|An|)/(Cat+|An|)  =  -1.15
                               Iterations  =  37
                                  Total H  = 1.110125e+002
                                  Total O  = 6.003098e+001

----------------------------Distribution of species----------------------------

                                               Log       Log       Log    mole V
   Species          Molality    Activity  Molality  Activity     Gamma   cm3/mol

   H+             1.013e-003  9.717e-004    -2.994    -3.012    -0.018      0.00
   OH-            7.352e-009  7.032e-009    -8.134    -8.153    -0.019    -14.11
   H2O            5.551e+001  9.615e-001     1.744    -0.017     0.000     18.52
C(-4)        0.000e+000
   CH4            0.000e+000  0.000e+000   -81.346   -81.346     0.000     32.22
C(4)         2.262e+000
   CO2            2.261e+000  2.262e+000     0.354     0.354     0.000     35.02
   HCO3-          1.037e-003  9.928e-004    -2.984    -3.003    -0.019     25.19
   CO3-2          1.468e-010  1.233e-010    -9.833    -9.909    -0.076     -6.72
H(0)         2.366e-027
   H2             1.183e-027  1.183e-027   -26.927   -26.927     0.000     28.17
O(0)         2.562e-011
   O2             1.281e-011  1.282e-011   -10.892   -10.892     0.000     32.18

------------------------------Saturation indices-------------------------------

	Phase               SI   log IAP   log K(423 K, 1175 atm)

	CH4(g)          -79.29    -81.35   -2.05  CH4
	CO2(g)            2.04      0.35   -1.69  CO2	 Pressure 1175.3 atm, phi 0.717.
	H2(g)           -23.95    -26.93   -2.98  H2
	H2O(g)            0.91     -0.02   -0.93  H2O
	O2(g)            -7.31    -10.89   -3.58  O2


------------------
End of simulation.
------------------

------------------------------------
Reading input data for simulation 5.
------------------------------------

------------------------------
End of Run after 0.11 Seconds.
------------------------------

