WARNING: Database file from DATABASE keyword is used; command line argument ignored.
   Input file: CO2_4M_NaCl
  Output file: CO2_4M_NaCl.out
Database file: ../database/pitzer.dat

------------------
Reading data base.
------------------

	SOLUTION_MASTER_SPECIES
	SOLUTION_SPECIES
	PHASES
	PITZER
	EXCHANGE_MASTER_SPECIES
	EXCHANGE_SPECIES
	SURFACE_MASTER_SPECIES
	SURFACE_SPECIES
	END
------------------------------------
Reading input data for simulation 1.
------------------------------------

	DATABASE ../database/pitzer.dat
	SOLUTION 1
	 pH 7 charge
	 Na 4e3
	 Cl 4e3
	 temp 80
	GAS_PHASE 1
	     fixed_volume
	     CO2(g) 0
	     H2O(g) 0
	REACTION
	 CO2 1
	 5*0.2 5*1
	INCREMENTAL_REACTIONS true
	USER_GRAPH
	 -plot_csv_file CO2_4M_NaCl.dat
	 -axis_titles "CO2 Pressure / bar" "CO2 solubility in 4 M NaCl / (mol/kgw)"
	 -connect_simulations false
	 -axis_scale x_axis 0 100
	 10 graph_x pr_p("CO2(g)") * 1.013
	 20 graph_y tot("C")
	END
-------------------------------------------
Beginning of initial solution calculations.
-------------------------------------------

Initial solution 1.	

-----------------------------Solution composition------------------------------

	Elements           Molality       Moles

	Cl               4.000e+000  4.000e+000
	Na               4.000e+000  4.000e+000

----------------------------Description of solution----------------------------

                                       pH  =   5.987      Charge balance
                                       pe  =   4.000    
       Specific Conductance (uS/cm, 80 oC) = 739463
                          Density (g/cm3)  =   1.10721
                               Volume (L)  =   1.11431
                        Activity of water  =   0.851
                           Ionic strength  =  4.000e+000
                       Mass of water (kg)  =  1.000e+000
                 Total alkalinity (eq/kg)  =  3.874e-015
                    Total carbon (mol/kg)  =  0.000e+000
                       Total CO2 (mol/kg)  =  0.000e+000
                      Temperature (deg C)  =  80.00
                  Electrical balance (eq)  =  6.160e-013
 Percent error, 100*(Cat-|An|)/(Cat+|An|)  =   0.00
                               Iterations  =   8
                         Gamma iterations  =   4
                      Osmotic coefficient  =   1.11592
                         Density of water  =   0.97182
                                  Total H  = 1.110124e+002
                                  Total O  = 5.550622e+001

----------------------------Distribution of species----------------------------

                                                    MacInnes  MacInnes
                                MacInnes       Log       Log       Log    mole V
   Species          Molality    Activity  Molality  Activity     Gamma   cm3/mol

   OH-            4.874e-007  2.109e-007    -6.312    -6.676    -0.364      2.05
   H+             4.874e-007  1.030e-006    -6.312    -5.987     0.325      0.00
   H2O            5.551e+001  8.514e-001     1.744    -0.070     0.000     18.54
Cl           4.000e+000
   Cl-            4.000e+000  2.538e+000     0.602     0.405    -0.198     19.85
Na           4.000e+000
   Na+            4.000e+000  3.709e+000     0.602     0.569    -0.033      1.47

------------------------------Saturation indices-------------------------------

	Phase               SI   log IAP   log K(353 K,   1 atm)

	H2O(g)           -0.40     -0.07    0.33  H2O
	Halite           -0.61      0.97    1.58  NaCl


-----------------------------------------
Beginning of batch-reaction calculations.
-----------------------------------------

Reaction step 1.

WARNING: Numerical method failed, switching to numerical derivatives.
Using solution 1.	
Using gas phase 1.	
Using reaction 1.	

Reaction 1.	

	 2.000e-001 moles of the following reaction have been added:

	                 Relative
	Reactant            moles

	CO2                  1.00000

	                 Relative
	Element             moles
	C                    1.00000
	O                    2.00000

-----------------------------------Gas phase-----------------------------------

Total pressure:  5.17      atmospheres          (Peng-Robinson calculation)
    Gas volume:  1.00e+000 liters
  Molar volume:  5.50e+000 liters/mole
   P * Vm / RT:  0.98189  (Compressibility Factor Z) 

                                                        Moles in gas
                                            ----------------------------------
Component         log P           P    phi     Initial       Final       Delta

CO2(g)             0.68  4.762e+000  0.983  0.000e+000  1.674e-001  1.674e-001
H2O(g)            -0.39  4.092e-001  0.966  0.000e+000  1.438e-002  1.438e-002

-----------------------------Solution composition------------------------------

	Elements           Molality       Moles

	C                3.265e-002  3.264e-002
	Cl               4.001e+000  4.000e+000
	Na               4.001e+000  4.000e+000

----------------------------Description of solution----------------------------

                                       pH  =   3.483      Charge balance
                                       pe  =   4.000      Adjusted to redox equilibrium
       Specific Conductance (uS/cm, 80 oC) = 744449
                          Density (g/cm3)  =   1.10798
                               Volume (L)  =   1.11604
                        Activity of water  =   0.851
                           Ionic strength  =  4.001e+000
                       Mass of water (kg)  =  9.997e-001
                 Total alkalinity (eq/kg)  =  2.250e-013
                       Total CO2 (mol/kg)  =  3.265e-002
                      Temperature (deg C)  =  80.00
                           Pressure (atm)  =  5.17
                  Electrical balance (eq)  = -4.797e-012
 Percent error, 100*(Cat-|An|)/(Cat+|An|)  =  -0.00
                               Iterations  = 130
                         Gamma iterations  =   6
                      Osmotic coefficient  =   1.11813
                         Density of water  =   0.97182
                                  Total H  = 1.109837e+002
                                  Total O  = 5.555711e+001

----------------------------Distribution of species----------------------------

                                                    MacInnes  MacInnes
                                MacInnes       Log       Log       Log    mole V
   Species          Molality    Activity  Molality  Activity     Gamma   cm3/mol

   H+             1.554e-004  3.285e-004    -3.809    -3.483     0.325      0.00
   OH-            1.531e-009  6.625e-010    -8.815    -9.179    -0.364      2.07
   H2O            5.551e+001  8.506e-001     1.744    -0.070     0.000     18.54
C(4)         3.265e-002
   CO2            3.249e-002  6.163e-002    -1.488    -1.210     0.278     22.15
   HCO3-          1.554e-004  7.510e-005    -3.809    -4.124    -0.316     32.63
   CO3-2          6.529e-010  1.678e-011    -9.185   -10.775    -1.590      4.60
Cl           4.001e+000
   Cl-            4.001e+000  2.539e+000     0.602     0.405    -0.197     19.85
Na           4.001e+000
   Na+            4.001e+000  3.730e+000     0.602     0.572    -0.030      1.48

------------------------------Saturation indices-------------------------------

	Phase               SI   log IAP   log K(353 K,   5 atm)

	CO2(g)            0.67     -1.21   -1.88  CO2	 Pressure   4.8 atm, phi 0.983.
	H2O(g)           -0.40     -0.07    0.33  H2O	 Pressure   0.4 atm, phi 0.966.
	Halite           -0.61      0.98    1.58  NaCl
	Nahcolite        -2.94    -13.69  -10.74  NaHCO3
	Natron           -9.50    -10.33   -0.84  Na2CO3:10H2O
	Trona           -12.08    -23.46  -11.38  Na3H(CO3)2:2H2O


Reaction step 2.

WARNING: Maximum iterations exceeded, 200

WARNING: Numerical method failed with this set of convergence parameters.

WARNING: Trying smaller step size, pe step size 10, 5 ... 

Using solution 1.	
Using gas phase 1.	
Using reaction 1.	

Reaction 1.	

	 2.000e-001 moles of the following reaction have been added:

	                 Relative
	Reactant            moles

	CO2                  1.00000

	                 Relative
	Element             moles
	C                    1.00000
	O                    2.00000

-----------------------------------Gas phase-----------------------------------

Total pressure:  9.85      atmospheres          (Peng-Robinson calculation)
    Gas volume:  1.00e+000 liters
  Molar volume:  2.84e+000 liters/mole
   P * Vm / RT:  0.96656  (Compressibility Factor Z) 

                                                        Moles in gas
                                            ----------------------------------
Component         log P           P    phi     Initial       Final       Delta

CO2(g)             0.97  9.430e+000  0.969  1.674e-001  3.367e-001  1.693e-001
H2O(g)            -0.37  4.221e-001  0.939  1.438e-002  1.507e-002  6.865e-004

-----------------------------Solution composition------------------------------

	Elements           Molality       Moles

	C                6.335e-002  6.333e-002
	Cl               4.001e+000  4.000e+000
	Na               4.001e+000  4.000e+000

----------------------------Description of solution----------------------------

                                       pH  =   3.339      Charge balance
                                       pe  =   4.000      Adjusted to redox equilibrium
       Specific Conductance (uS/cm, 80 oC) = 748831
                          Density (g/cm3)  =   1.10869
                               Volume (L)  =   1.11788
                        Activity of water  =   0.850
                           Ionic strength  =  4.001e+000
                       Mass of water (kg)  =  9.997e-001
                 Total alkalinity (eq/kg)  =  2.070e-013
                       Total CO2 (mol/kg)  =  6.335e-002
                      Temperature (deg C)  =  80.00
                           Pressure (atm)  =  9.85
                  Electrical balance (eq)  = -4.752e-012
 Percent error, 100*(Cat-|An|)/(Cat+|An|)  =  -0.00
                               Iterations  =  14
                         Gamma iterations  =  14
                      Osmotic coefficient  =   1.12012
                         Density of water  =   0.97182
                                  Total H  = 1.109823e+002
                                  Total O  = 5.561781e+001

----------------------------Distribution of species----------------------------

                                                    MacInnes  MacInnes
                                MacInnes       Log       Log       Log    mole V
   Species          Molality    Activity  Molality  Activity     Gamma   cm3/mol

   H+             2.166e-004  4.579e-004    -3.664    -3.339     0.325      0.00
   OH-            1.100e-009  4.761e-010    -8.959    -9.322    -0.364      2.08
   H2O            5.551e+001  8.498e-001     1.744    -0.071     0.000     18.53
C(4)         6.335e-002
   CO2            6.313e-002  1.197e-001    -1.200    -0.922     0.278     22.22
   HCO3-          2.166e-004  1.047e-004    -3.664    -3.980    -0.316     32.63
   CO3-2          6.559e-010  1.687e-011    -9.183   -10.773    -1.590      4.62
Cl           4.001e+000
   Cl-            4.001e+000  2.539e+000     0.602     0.405    -0.197     19.85
Na           4.001e+000
   Na+            4.001e+000  3.749e+000     0.602     0.574    -0.028      1.49

------------------------------Saturation indices-------------------------------

	Phase               SI   log IAP   log K(353 K,  10 atm)

	CO2(g)            0.96     -0.92   -1.88  CO2	 Pressure   9.4 atm, phi 0.969.
	H2O(g)           -0.40     -0.07    0.33  H2O	 Pressure   0.4 atm, phi 0.939.
	Halite           -0.61      0.98    1.58  NaCl
	Nahcolite        -2.80    -13.54  -10.74  NaHCO3
	Natron           -9.48    -10.33   -0.85  Na2CO3:10H2O
	Trona           -11.93    -23.30  -11.38  Na3H(CO3)2:2H2O


Reaction step 3.

WARNING: Maximum iterations exceeded, 200

WARNING: Numerical method failed with this set of convergence parameters.

WARNING: Trying smaller step size, pe step size 10, 5 ... 

Using solution 1.	
Using gas phase 1.	
Using reaction 1.	

Reaction 1.	

	 2.000e-001 moles of the following reaction have been added:

	                 Relative
	Reactant            moles

	CO2                  1.00000

	                 Relative
	Element             moles
	C                    1.00000
	O                    2.00000

-----------------------------------Gas phase-----------------------------------

Total pressure: 14.43      atmospheres          (Peng-Robinson calculation)
    Gas volume:  1.00e+000 liters
  Molar volume:  1.91e+000 liters/mole
   P * Vm / RT:  0.95142  (Compressibility Factor Z) 

                                                        Moles in gas
                                            ----------------------------------
Component         log P           P    phi     Initial       Final       Delta

CO2(g)             1.15  1.400e+001  0.954  3.367e-001  5.078e-001  1.711e-001
H2O(g)            -0.36  4.352e-001  0.912  1.507e-002  1.578e-002  7.166e-004

-----------------------------Solution composition------------------------------

	Elements           Molality       Moles

	C                9.226e-002  9.224e-002
	Cl               4.001e+000  4.000e+000
	Na               4.001e+000  4.000e+000

----------------------------Description of solution----------------------------

                                       pH  =   3.257      Charge balance
                                       pe  =   4.000      Adjusted to redox equilibrium
       Specific Conductance (uS/cm, 80 oC) = 752986
                          Density (g/cm3)  =   1.10937
                               Volume (L)  =   1.11962
                        Activity of water  =   0.849
                           Ionic strength  =  4.001e+000
                       Mass of water (kg)  =  9.997e-001
                 Total alkalinity (eq/kg)  = -2.978e-013
                       Total CO2 (mol/kg)  =  9.226e-002
                      Temperature (deg C)  =  80.00
                           Pressure (atm)  = 14.43
                  Electrical balance (eq)  = -4.479e-012
 Percent error, 100*(Cat-|An|)/(Cat+|An|)  =  -0.00
                               Iterations  =  13
                         Gamma iterations  =  13
                      Osmotic coefficient  =   1.12199
                         Density of water  =   0.97182
                                  Total H  = 1.109809e+002
                                  Total O  = 5.567491e+001

----------------------------Distribution of species----------------------------

                                                    MacInnes  MacInnes
                                MacInnes       Log       Log       Log    mole V
   Species          Molality    Activity  Molality  Activity     Gamma   cm3/mol

   H+             2.615e-004  5.527e-004    -3.582    -3.257     0.325      0.00
   OH-            9.124e-010  3.951e-010    -9.040    -9.403    -0.363      2.10
   H2O            5.551e+001  8.491e-001     1.744    -0.071     0.000     18.53
C(4)         9.226e-002
   CO2            9.200e-002  1.745e-001    -1.036    -0.758     0.278     22.28
   HCO3-          2.615e-004  1.265e-004    -3.582    -3.898    -0.315     32.64
   CO3-2          6.588e-010  1.695e-011    -9.181   -10.771    -1.590      4.65
Cl           4.001e+000
   Cl-            4.001e+000  2.539e+000     0.602     0.405    -0.197     19.85
Na           4.001e+000
   Na+            4.001e+000  3.766e+000     0.602     0.576    -0.026      1.50

------------------------------Saturation indices-------------------------------

	Phase               SI   log IAP   log K(353 K,  14 atm)

	CO2(g)            1.12     -0.76   -1.88  CO2	 Pressure  14.0 atm, phi 0.954.
	H2O(g)           -0.40     -0.07    0.33  H2O	 Pressure   0.4 atm, phi 0.912.
	Halite           -0.60      0.98    1.58  NaCl
	Nahcolite        -2.71    -13.45  -10.74  NaHCO3
	Natron           -9.47    -10.33   -0.86  Na2CO3:10H2O
	Trona           -11.84    -23.21  -11.37  Na3H(CO3)2:2H2O


Reaction step 4.

Using solution 1.	
Using gas phase 1.	
Using reaction 1.	

Reaction 1.	

	 2.000e-001 moles of the following reaction have been added:

	                 Relative
	Reactant            moles

	CO2                  1.00000

	                 Relative
	Element             moles
	C                    1.00000
	O                    2.00000

-----------------------------------Gas phase-----------------------------------

Total pressure: 18.92      atmospheres          (Peng-Robinson calculation)
    Gas volume:  1.00e+000 liters
  Molar volume:  1.43e+000 liters/mole
   P * Vm / RT:  0.93650  (Compressibility Factor Z) 

                                                        Moles in gas
                                            ----------------------------------
Component         log P           P    phi     Initial       Final       Delta

CO2(g)             1.27  1.847e+001  0.940  5.078e-001  6.806e-001  1.728e-001
H2O(g)            -0.35  4.487e-001  0.887  1.578e-002  1.653e-002  7.473e-004

-----------------------------Solution composition------------------------------

	Elements           Molality       Moles

	C                1.195e-001  1.194e-001
	Cl               4.001e+000  4.000e+000
	Na               4.001e+000  4.000e+000

----------------------------Description of solution----------------------------

                                       pH  =   3.201      Charge balance
                                       pe  =   4.000      Adjusted to redox equilibrium
       Specific Conductance (uS/cm, 80 oC) = 756928
                          Density (g/cm3)  =   1.11001
                               Volume (L)  =   1.12124
                        Activity of water  =   0.848
                           Ionic strength  =  4.002e+000
                       Mass of water (kg)  =  9.997e-001
                 Total alkalinity (eq/kg)  = -3.050e-013
                       Total CO2 (mol/kg)  =  1.195e-001
                      Temperature (deg C)  =  80.00
                           Pressure (atm)  = 18.92
                  Electrical balance (eq)  = -4.472e-012
 Percent error, 100*(Cat-|An|)/(Cat+|An|)  =  -0.00
                               Iterations  =  32
                         Gamma iterations  =   5
                      Osmotic coefficient  =   1.12373
                         Density of water  =   0.97182
                                  Total H  = 1.109794e+002
                                  Total O  = 5.572858e+001

----------------------------Distribution of species----------------------------

                                                    MacInnes  MacInnes
                                MacInnes       Log       Log       Log    mole V
   Species          Molality    Activity  Molality  Activity     Gamma   cm3/mol

   H+             2.978e-004  6.291e-004    -3.526    -3.201     0.325      0.00
   OH-            8.028e-010  3.477e-010    -9.095    -9.459    -0.363      2.11
   H2O            5.551e+001  8.484e-001     1.744    -0.071     0.000     18.52
C(4)         1.195e-001
   CO2            1.192e-001  2.261e-001    -0.924    -0.646     0.278     22.35
   HCO3-          2.978e-004  1.440e-004    -3.526    -3.841    -0.315     32.65
   CO3-2          6.617e-010  1.703e-011    -9.179   -10.769    -1.589      4.67
Cl           4.001e+000
   Cl-            4.001e+000  2.539e+000     0.602     0.405    -0.197     19.85
Na           4.001e+000
   Na+            4.001e+000  3.783e+000     0.602     0.578    -0.024      1.51

------------------------------Saturation indices-------------------------------

	Phase               SI   log IAP   log K(353 K,  19 atm)

	CO2(g)            1.23     -0.65   -1.88  CO2	 Pressure  18.5 atm, phi 0.940.
	H2O(g)           -0.40     -0.07    0.33  H2O	 Pressure   0.4 atm, phi 0.887.
	Halite           -0.60      0.98    1.58  NaCl
	Nahcolite        -2.65    -13.39  -10.74  NaHCO3
	Natron           -9.45    -10.33   -0.88  Na2CO3:10H2O
	Trona           -11.78    -23.15  -11.37  Na3H(CO3)2:2H2O


Reaction step 5.

Using solution 1.	
Using gas phase 1.	
Using reaction 1.	

Reaction 1.	

	 2.000e-001 moles of the following reaction have been added:

	                 Relative
	Reactant            moles

	CO2                  1.00000

	                 Relative
	Element             moles
	C                    1.00000
	O                    2.00000

-----------------------------------Gas phase-----------------------------------

Total pressure: 23.30      atmospheres          (Peng-Robinson calculation)
    Gas volume:  1.00e+000 liters
  Molar volume:  1.15e+000 liters/mole
   P * Vm / RT:  0.92183  (Compressibility Factor Z) 

                                                        Moles in gas
                                            ----------------------------------
Component         log P           P    phi     Initial       Final       Delta

CO2(g)             1.36  2.284e+001  0.927  6.806e-001  8.549e-001  1.744e-001
H2O(g)            -0.33  4.624e-001  0.862  1.653e-002  1.731e-002  7.787e-004

-----------------------------Solution composition------------------------------

	Elements           Molality       Moles

	C                1.451e-001  1.451e-001
	Cl               4.001e+000  4.000e+000
	Na               4.001e+000  4.000e+000

----------------------------Description of solution----------------------------

                                       pH  =   3.159      Charge balance
                                       pe  =   4.000      Adjusted to redox equilibrium
       Specific Conductance (uS/cm, 80 oC) = 760668
                          Density (g/cm3)  =   1.11061
                               Volume (L)  =   1.12276
                        Activity of water  =   0.848
                           Ionic strength  =  4.002e+000
                       Mass of water (kg)  =  9.997e-001
                 Total alkalinity (eq/kg)  = -3.130e-013
                       Total CO2 (mol/kg)  =  1.451e-001
                      Temperature (deg C)  =  80.00
                           Pressure (atm)  = 23.30
                  Electrical balance (eq)  = -4.465e-012
 Percent error, 100*(Cat-|An|)/(Cat+|An|)  =  -0.00
                               Iterations  =  31
                         Gamma iterations  =   5
                      Osmotic coefficient  =   1.12536
                         Density of water  =   0.97182
                                  Total H  = 1.109778e+002
                                  Total O  = 5.577902e+001

----------------------------Distribution of species----------------------------

                                                    MacInnes  MacInnes
                                MacInnes       Log       Log       Log    mole V
   Species          Molality    Activity  Molality  Activity     Gamma   cm3/mol

   H+             3.283e-004  6.934e-004    -3.484    -3.159     0.325      0.00
   OH-            7.294e-010  3.160e-010    -9.137    -9.500    -0.363      2.13
   H2O            5.551e+001  8.477e-001     1.744    -0.072     0.000     18.52
C(4)         1.451e-001
   CO2            1.448e-001  2.746e-001    -0.839    -0.561     0.278     22.42
   HCO3-          3.283e-004  1.588e-004    -3.484    -3.799    -0.315     32.65
   CO3-2          6.645e-010  1.711e-011    -9.178   -10.767    -1.589      4.69
Cl           4.001e+000
   Cl-            4.001e+000  2.539e+000     0.602     0.405    -0.197     19.85
Na           4.001e+000
   Na+            4.001e+000  3.798e+000     0.602     0.580    -0.023      1.52

------------------------------Saturation indices-------------------------------

	Phase               SI   log IAP   log K(353 K,  23 atm)

	CO2(g)            1.31     -0.56   -1.87  CO2	 Pressure  22.8 atm, phi 0.927.
	H2O(g)           -0.40     -0.07    0.33  H2O	 Pressure   0.5 atm, phi 0.862.
	Halite           -0.60      0.98    1.58  NaCl
	Nahcolite        -2.60    -13.35  -10.74  NaHCO3
	Natron           -9.44    -10.32   -0.89  Na2CO3:10H2O
	Trona           -11.73    -23.10  -11.37  Na3H(CO3)2:2H2O


Reaction step 6.

WARNING: Maximum iterations exceeded, 200

WARNING: Numerical method failed with this set of convergence parameters.

WARNING: Trying smaller step size, pe step size 10, 5 ... 

Using solution 1.	
Using gas phase 1.	
Using reaction 1.	

Reaction 1.	

	 1.000e+000 moles of the following reaction have been added:

	                 Relative
	Reactant            moles

	CO2                  1.00000

	                 Relative
	Element             moles
	C                    1.00000
	O                    2.00000

-----------------------------------Gas phase-----------------------------------

Total pressure: 43.71      atmospheres          (Peng-Robinson calculation)
    Gas volume:  1.00e+000 liters
  Molar volume:  5.65e-001 liters/mole
   P * Vm / RT:  0.85238  (Compressibility Factor Z) 

                                                        Moles in gas
                                            ----------------------------------
Component         log P           P    phi     Initial       Final       Delta

CO2(g)             1.64  4.318e+001  0.866  8.549e-001  1.748e+000  8.930e-001
H2O(g)            -0.27  5.359e-001  0.751  1.731e-002  2.170e-002  4.385e-003

-----------------------------Solution composition------------------------------

	Elements           Molality       Moles

	C                2.521e-001  2.520e-001
	Cl               4.002e+000  4.000e+000
	Na               4.002e+000  4.000e+000

----------------------------Description of solution----------------------------

                                       pH  =   3.039      Charge balance
                                       pe  =   4.000      Adjusted to redox equilibrium
       Specific Conductance (uS/cm, 80 oC) = 776625
                          Density (g/cm3)  =   1.11316
                               Volume (L)  =   1.12905
                        Activity of water  =   0.845
                           Ionic strength  =  4.002e+000
                       Mass of water (kg)  =  9.996e-001
                 Total alkalinity (eq/kg)  = -2.043e-012
                       Total CO2 (mol/kg)  =  2.521e-001
                      Temperature (deg C)  =  80.00
                           Pressure (atm)  = 43.71
                  Electrical balance (eq)  = -5.654e-012
 Percent error, 100*(Cat-|An|)/(Cat+|An|)  =  -0.00
                               Iterations  =  14
                         Gamma iterations  =  14
                      Osmotic coefficient  =   1.13206
                         Density of water  =   0.97182
                                  Total H  = 1.109690e+002
                                  Total O  = 5.598855e+001

----------------------------Distribution of species----------------------------

                                                    MacInnes  MacInnes
                                MacInnes       Log       Log       Log    mole V
   Species          Molality    Activity  Molality  Activity     Gamma   cm3/mol

   H+             4.334e-004  9.147e-004    -3.363    -3.039     0.324      0.00
   OH-            5.569e-010  2.415e-010    -9.254    -9.617    -0.363      2.20
   H2O            5.551e+001  8.450e-001     1.744    -0.073     0.000     18.50
C(4)         2.521e-001
   CO2            2.517e-001  4.774e-001    -0.599    -0.321     0.278     22.71
   HCO3-          4.334e-004  2.100e-004    -3.363    -3.678    -0.315     32.68
   CO3-2          6.776e-010  1.749e-011    -9.169   -10.757    -1.588      4.80
Cl           4.002e+000
   Cl-            4.002e+000  2.540e+000     0.602     0.405    -0.197     19.84
Na           4.002e+000
   Na+            4.002e+000  3.865e+000     0.602     0.587    -0.015      1.57

------------------------------Saturation indices-------------------------------

	Phase               SI   log IAP   log K(353 K,  44 atm)

	CO2(g)            1.55     -0.32   -1.87  CO2	 Pressure  43.2 atm, phi 0.866.
	H2O(g)           -0.40     -0.07    0.32  H2O	 Pressure   0.5 atm, phi 0.751.
	Halite           -0.59      0.99    1.59  NaCl
	Nahcolite        -2.46    -13.21  -10.75  NaHCO3
	Natron           -9.37    -10.31   -0.95  Na2CO3:10H2O
	Trona           -11.59    -22.94  -11.35  Na3H(CO3)2:2H2O


Reaction step 7.

WARNING: Maximum iterations exceeded, 200

WARNING: Numerical method failed with this set of convergence parameters.

WARNING: Trying smaller step size, pe step size 10, 5 ... 

Using solution 1.	
Using gas phase 1.	
Using reaction 1.	

Reaction 1.	

	 1.000e+000 moles of the following reaction have been added:

	                 Relative
	Reactant            moles

	CO2                  1.00000

	                 Relative
	Element             moles
	C                    1.00000
	O                    2.00000

-----------------------------------Gas phase-----------------------------------

Total pressure: 61.71      atmospheres          (Peng-Robinson calculation)
    Gas volume:  1.00e+000 liters
  Molar volume:  3.71e-001 liters/mole
   P * Vm / RT:  0.78977  (Compressibility Factor Z) 

                                                        Moles in gas
                                            ----------------------------------
Component         log P           P    phi     Initial       Final       Delta

CO2(g)             1.79  6.109e+001  0.816  1.748e+000  2.669e+000  9.213e-001
H2O(g)            -0.21  6.168e-001  0.659  2.170e-002  2.695e-002  5.255e-003

-----------------------------Solution composition------------------------------

	Elements           Molality       Moles

	C                3.309e-001  3.307e-001
	Cl               4.002e+000  4.000e+000
	Na               4.002e+000  4.000e+000

----------------------------Description of solution----------------------------

                                       pH  =   2.979      Charge balance
                                       pe  =   4.000      Adjusted to redox equilibrium
       Specific Conductance (uS/cm, 80 oC) = 788758
                          Density (g/cm3)  =   1.11510
                               Volume (L)  =   1.13357
                        Activity of water  =   0.843
                           Ionic strength  =  4.002e+000
                       Mass of water (kg)  =  9.995e-001
                 Total alkalinity (eq/kg)  = -2.198e-012
                       Total CO2 (mol/kg)  =  3.309e-001
                      Temperature (deg C)  =  80.00
                           Pressure (atm)  = 61.71
                  Electrical balance (eq)  = -6.427e-012
 Percent error, 100*(Cat-|An|)/(Cat+|An|)  =  -0.00
                               Iterations  =  13
                         Gamma iterations  =  13
                      Osmotic coefficient  =   1.13689
                         Density of water  =   0.97182
                                  Total H  = 1.109585e+002
                                  Total O  = 5.614071e+001

----------------------------Distribution of species----------------------------

                                                    MacInnes  MacInnes
                                MacInnes       Log       Log       Log    mole V
   Species          Molality    Activity  Molality  Activity     Gamma   cm3/mol

   H+             4.975e-004  1.049e-003    -3.303    -2.979     0.324      0.00
   OH-            4.889e-010  2.122e-010    -9.311    -9.673    -0.362      2.26
   H2O            5.551e+001  8.431e-001     1.744    -0.074     0.000     18.49
C(4)         3.309e-001
   CO2            3.304e-001  6.268e-001    -0.481    -0.203     0.278     22.97
   HCO3-          4.975e-004  2.411e-004    -3.303    -3.618    -0.314     32.70
   CO3-2          6.893e-010  1.781e-011    -9.162   -10.749    -1.588      4.89
Cl           4.002e+000
   Cl-            4.002e+000  2.540e+000     0.602     0.405    -0.197     19.84
Na           4.002e+000
   Na+            4.002e+000  3.914e+000     0.602     0.593    -0.010      1.62

------------------------------Saturation indices-------------------------------

	Phase               SI   log IAP   log K(353 K,  62 atm)

	CO2(g)            1.66     -0.20   -1.87  CO2	 Pressure  61.1 atm, phi 0.816.
	H2O(g)           -0.39     -0.07    0.32  H2O	 Pressure   0.6 atm, phi 0.659.
	Halite           -0.59      1.00    1.59  NaCl
	Nahcolite        -2.39    -13.14  -10.75  NaHCO3
	Natron           -9.30    -10.31   -1.00  Na2CO3:10H2O
	Trona           -11.51    -22.85  -11.33  Na3H(CO3)2:2H2O


Reaction step 8.

WARNING: Maximum iterations exceeded, 200

WARNING: Numerical method failed with this set of convergence parameters.

WARNING: Trying smaller step size, pe step size 10, 5 ... 

Using solution 1.	
Using gas phase 1.	
Using reaction 1.	

Reaction 1.	

	 1.000e+000 moles of the following reaction have been added:

	                 Relative
	Reactant            moles

	CO2                  1.00000

	                 Relative
	Element             moles
	C                    1.00000
	O                    2.00000

-----------------------------------Gas phase-----------------------------------

Total pressure: 77.53      atmospheres          (Peng-Robinson calculation)
    Gas volume:  1.00e+000 liters
  Molar volume:  2.74e-001 liters/mole
   P * Vm / RT:  0.73418  (Compressibility Factor Z) 

                                                        Moles in gas
                                            ----------------------------------
Component         log P           P    phi     Initial       Final       Delta

CO2(g)             1.89  7.683e+001  0.773  2.669e+000  3.611e+000  9.417e-001
H2O(g)            -0.15  7.050e-001  0.581  2.695e-002  3.314e-002  6.185e-003

-----------------------------Solution composition------------------------------

	Elements           Molality       Moles

	C                3.892e-001  3.890e-001
	Cl               4.002e+000  4.000e+000
	Na               4.002e+000  4.000e+000

----------------------------Description of solution----------------------------

                                       pH  =   2.943      Charge balance
                                       pe  =   4.000      Adjusted to redox equilibrium
       Specific Conductance (uS/cm, 80 oC) = 797998
                          Density (g/cm3)  =   1.11659
                               Volume (L)  =   1.13682
                        Activity of water  =   0.842
                           Ionic strength  =  4.003e+000
                       Mass of water (kg)  =  9.994e-001
                 Total alkalinity (eq/kg)  =  6.669e-013
                       Total CO2 (mol/kg)  =  3.892e-001
                      Temperature (deg C)  =  80.00
                           Pressure (atm)  = 77.53
                  Electrical balance (eq)  = -5.748e-012
 Percent error, 100*(Cat-|An|)/(Cat+|An|)  =  -0.00
                               Iterations  =  15
                         Gamma iterations  =  15
                      Osmotic coefficient  =   1.14042
                         Density of water  =   0.97182
                                  Total H  = 1.109462e+002
                                  Total O  = 5.625110e+001

----------------------------Distribution of species----------------------------

                                                    MacInnes  MacInnes
                                MacInnes       Log       Log       Log    mole V
   Species          Molality    Activity  Molality  Activity     Gamma   cm3/mol

   H+             5.405e-004  1.139e-003    -3.267    -2.943     0.324      0.00
   OH-            4.531e-010  1.967e-010    -9.344    -9.706    -0.362      2.31
   H2O            5.551e+001  8.416e-001     1.744    -0.075     0.000     18.47
C(4)         3.892e-001
   CO2            3.887e-001  7.375e-001    -0.410    -0.132     0.278     23.20
   HCO3-          5.405e-004  2.622e-004    -3.267    -3.581    -0.314     32.72
   CO3-2          6.997e-010  1.810e-011    -9.155   -10.742    -1.587      4.97
Cl           4.002e+000
   Cl-            4.002e+000  2.540e+000     0.602     0.405    -0.197     19.83
Na           4.002e+000
   Na+            4.002e+000  3.952e+000     0.602     0.597    -0.006      1.66

------------------------------Saturation indices-------------------------------

	Phase               SI   log IAP   log K(353 K,  78 atm)

	CO2(g)            1.73     -0.13   -1.86  CO2	 Pressure  76.8 atm, phi 0.773.
	H2O(g)           -0.39     -0.07    0.31  H2O	 Pressure   0.7 atm, phi 0.581.
	Halite           -0.59      1.00    1.59  NaCl
	Nahcolite        -2.34    -13.09  -10.75  NaHCO3
	Natron           -9.25    -10.30   -1.05  Na2CO3:10H2O
	Trona           -11.47    -22.79  -11.32  Na3H(CO3)2:2H2O


Reaction step 9.

WARNING: Maximum iterations exceeded, 200

WARNING: Numerical method failed with this set of convergence parameters.

WARNING: Trying smaller step size, pe step size 10, 5 ... 

Using solution 1.	
Using gas phase 1.	
Using reaction 1.	

Reaction 1.	

	 1.000e+000 moles of the following reaction have been added:

	                 Relative
	Reactant            moles

	CO2                  1.00000

	                 Relative
	Element             moles
	C                    1.00000
	O                    2.00000

-----------------------------------Gas phase-----------------------------------

Total pressure: 91.53      atmospheres          (Peng-Robinson calculation)
    Gas volume:  1.00e+000 liters
  Molar volume:  2.17e-001 liters/mole
   P * Vm / RT:  0.68549  (Compressibility Factor Z) 

                                                        Moles in gas
                                            ----------------------------------
Component         log P           P    phi     Initial       Final       Delta

CO2(g)             1.96  9.073e+001  0.737  3.611e+000  4.567e+000  9.562e-001
H2O(g)            -0.10  8.005e-001  0.516  3.314e-002  4.030e-002  7.162e-003

-----------------------------Solution composition------------------------------

	Elements           Molality       Moles

	C                4.332e-001  4.329e-001
	Cl               4.003e+000  4.000e+000
	Na               4.003e+000  4.000e+000

----------------------------Description of solution----------------------------

                                       pH  =   2.919      Charge balance
                                       pe  =   4.000      Adjusted to redox equilibrium
       Specific Conductance (uS/cm, 80 oC) = 805126
                          Density (g/cm3)  =   1.11777
                               Volume (L)  =   1.13915
                        Activity of water  =   0.840
                           Ionic strength  =  4.004e+000
                       Mass of water (kg)  =  9.993e-001
                 Total alkalinity (eq/kg)  = -2.816e-013
                       Total CO2 (mol/kg)  =  4.332e-001
                      Temperature (deg C)  =  80.00
                           Pressure (atm)  = 91.53
                  Electrical balance (eq)  = -1.175e-011
 Percent error, 100*(Cat-|An|)/(Cat+|An|)  =  -0.00
                               Iterations  =  35
                         Gamma iterations  =  35
                      Osmotic coefficient  =   1.14305
                         Density of water  =   0.97182
                                  Total H  = 1.109318e+002
                                  Total O  = 5.633162e+001

----------------------------Distribution of species----------------------------

                                                    MacInnes  MacInnes
                                MacInnes       Log       Log       Log    mole V
   Species          Molality    Activity  Molality  Activity     Gamma   cm3/mol

   H+             5.712e-004  1.204e-003    -3.243    -2.919     0.324      0.00
   OH-            4.314e-010  1.874e-010    -9.365    -9.727    -0.362      2.36
   H2O            5.551e+001  8.405e-001     1.744    -0.075     0.000     18.46
C(4)         4.332e-001
   CO2            4.326e-001  8.208e-001    -0.364    -0.086     0.278     23.39
   HCO3-          5.712e-004  2.772e-004    -3.243    -3.557    -0.314     32.74
   CO3-2          7.090e-010  1.835e-011    -9.149   -10.736    -1.587      5.04
Cl           4.003e+000
   Cl-            4.003e+000  2.541e+000     0.602     0.405    -0.197     19.83
Na           4.003e+000
   Na+            4.003e+000  3.980e+000     0.602     0.600    -0.002      1.69

------------------------------Saturation indices-------------------------------

	Phase               SI   log IAP   log K(353 K,  92 atm)

	CO2(g)            1.78     -0.09   -1.86  CO2	 Pressure  90.7 atm, phi 0.737.
	H2O(g)           -0.38     -0.08    0.31  H2O	 Pressure   0.8 atm, phi 0.516.
	Halite           -0.59      1.00    1.59  NaCl
	Nahcolite        -2.30    -13.06  -10.75  NaHCO3
	Natron           -9.20    -10.29   -1.09  Na2CO3:10H2O
	Trona           -11.43    -22.74  -11.31  Na3H(CO3)2:2H2O


Reaction step 10.

WARNING: Maximum iterations exceeded, 200

WARNING: Numerical method failed with this set of convergence parameters.

WARNING: Trying smaller step size, pe step size 10, 5 ... 

Using solution 1.	
Using gas phase 1.	
Using reaction 1.	

Reaction 1.	

	 1.000e+000 moles of the following reaction have been added:

	                 Relative
	Reactant            moles

	CO2                  1.00000

	                 Relative
	Element             moles
	C                    1.00000
	O                    2.00000

-----------------------------------Gas phase-----------------------------------

Total pressure: 104.09      atmospheres          (Peng-Robinson calculation)
    Gas volume:  1.00e+000 liters
  Molar volume:  1.79e-001 liters/mole
   P * Vm / RT:  0.64351  (Compressibility Factor Z) 

                                                        Moles in gas
                                            ----------------------------------
Component         log P           P    phi     Initial       Final       Delta

CO2(g)             2.01  1.032e+002  0.707  4.567e+000  5.533e+000  9.662e-001
H2O(g)            -0.04  9.040e-001  0.460  4.030e-002  4.847e-002  8.177e-003

-----------------------------Solution composition------------------------------

	Elements           Molality       Moles

	C                4.670e-001  4.666e-001
	Cl               4.004e+000  4.000e+000
	Na               4.004e+000  4.000e+000

----------------------------Description of solution----------------------------

                                       pH  =   2.902      Charge balance
                                       pe  =   4.000      Adjusted to redox equilibrium
       Specific Conductance (uS/cm, 80 oC) = 810756
                          Density (g/cm3)  =   1.11872
                               Volume (L)  =   1.14086
                        Activity of water  =   0.840
                           Ionic strength  =  4.004e+000
                       Mass of water (kg)  =  9.991e-001
                 Total alkalinity (eq/kg)  =  4.296e-013
                       Total CO2 (mol/kg)  =  4.670e-001
                      Temperature (deg C)  =  80.00
                           Pressure (atm)  = 104.09
                  Electrical balance (eq)  = -1.166e-011
 Percent error, 100*(Cat-|An|)/(Cat+|An|)  =  -0.00
                               Iterations  =  14
                         Gamma iterations  =  14
                      Osmotic coefficient  =   1.14508
                         Density of water  =   0.97182
                                  Total H  = 1.109155e+002
                                  Total O  = 5.639101e+001

----------------------------Distribution of species----------------------------

                                                    MacInnes  MacInnes
                                MacInnes       Log       Log       Log    mole V
   Species          Molality    Activity  Molality  Activity     Gamma   cm3/mol

   H+             5.941e-004  1.252e-003    -3.226    -2.902     0.324      0.00
   OH-            4.171e-010  1.812e-010    -9.380    -9.742    -0.362      2.40
   H2O            5.551e+001  8.396e-001     1.744    -0.076     0.000     18.45
C(4)         4.670e-001
   CO2            4.665e-001  8.851e-001    -0.331    -0.053     0.278     23.57
   HCO3-          5.941e-004  2.884e-004    -3.226    -3.540    -0.314     32.75
   CO3-2          7.173e-010  1.858e-011    -9.144   -10.731    -1.587      5.10
Cl           4.004e+000
   Cl-            4.004e+000  2.541e+000     0.602     0.405    -0.197     19.83
Na           4.004e+000
   Na+            4.004e+000  4.003e+000     0.602     0.602    -0.000      1.72

------------------------------Saturation indices-------------------------------

	Phase               SI   log IAP   log K(353 K, 104 atm)

	CO2(g)            1.81     -0.05   -1.86  CO2	 Pressure 103.2 atm, phi 0.707.
	H2O(g)           -0.38     -0.08    0.31  H2O	 Pressure   0.9 atm, phi 0.460.
	Halite           -0.58      1.01    1.59  NaCl
	Nahcolite        -2.28    -13.03  -10.75  NaHCO3
	Natron           -9.16    -10.29   -1.12  Na2CO3:10H2O
	Trona           -11.41    -22.71  -11.30  Na3H(CO3)2:2H2O


------------------
End of simulation.
------------------

------------------------------------
Reading input data for simulation 2.
------------------------------------

	SOLUTION 1
	 pH 7 charge
	 Na 4e3
	 Cl 4e3
	 temp 120
	USE reaction 1
	 USE gas_phase 1
	END
-------------------------------------------
Beginning of initial solution calculations.
-------------------------------------------

Initial solution 1.	

-----------------------------Solution composition------------------------------

	Elements           Molality       Moles

	Cl               4.000e+000  4.000e+000
	Na               4.000e+000  4.000e+000

----------------------------Description of solution----------------------------

                                       pH  =   5.774      Charge balance
                                       pe  =   4.000    
       Specific Conductance (uS/cm, 120 oC) = 893535
                          Density (g/cm3)  =   1.08013
                               Volume (L)  =   1.14224
                        Activity of water  =   0.856
                           Ionic strength  =  4.000e+000
                       Mass of water (kg)  =  1.000e+000
                 Total alkalinity (eq/kg)  =  8.527e-015
                    Total carbon (mol/kg)  =  0.000e+000
                       Total CO2 (mol/kg)  =  0.000e+000
                      Temperature (deg C)  = 120.00
                  Electrical balance (eq)  =  1.368e-012
 Percent error, 100*(Cat-|An|)/(Cat+|An|)  =   0.00
                               Iterations  =  10
                         Gamma iterations  =   4
                      Osmotic coefficient  =   1.08111
                         Density of water  =   0.94316
                                  Total H  = 1.110124e+002
                                  Total O  = 5.550622e+001

----------------------------Distribution of species----------------------------

                                                    MacInnes  MacInnes
                                MacInnes       Log       Log       Log    mole V
   Species          Molality    Activity  Molality  Activity     Gamma   cm3/mol

   OH-            1.130e-006  5.453e-007    -5.947    -6.263    -0.317      0.01
   H+             1.130e-006  1.683e-006    -5.947    -5.774     0.173      0.00
   H2O            5.551e+001  8.557e-001     1.744    -0.068     0.000     19.10
Cl           4.000e+000
   Cl-            4.000e+000  2.628e+000     0.602     0.420    -0.182     18.63
Na           4.000e+000
   Na+            4.000e+000  2.850e+000     0.602     0.455    -0.147      1.85

------------------------------Saturation indices-------------------------------

	Phase               SI   log IAP   log K(393 K,   1 atm)

	H2O(g)            0.22     -0.07   -0.28  H2O
	Halite           -0.65      0.87    1.52  NaCl


-----------------------------------------
Beginning of batch-reaction calculations.
-----------------------------------------

Reaction step 1.

WARNING: Numerical method failed, switching to numerical derivatives.
Using solution 1.	
Using gas phase 1.	
Using reaction 1.	

Reaction 1.	

	 2.000e-001 moles of the following reaction have been added:

	                 Relative
	Reactant            moles

	CO2                  1.00000

	                 Relative
	Element             moles
	C                    1.00000
	O                    2.00000

-----------------------------------Gas phase-----------------------------------

Total pressure:  7.17      atmospheres          (Peng-Robinson calculation)
    Gas volume:  1.00e+000 liters
  Molar volume:  4.40e+000 liters/mole
   P * Vm / RT:  0.97877  (Compressibility Factor Z) 

                                                        Moles in gas
                                            ----------------------------------
Component         log P           P    phi     Initial       Final       Delta

CO2(g)             0.74  5.450e+000  0.985  0.000e+000  1.726e-001  1.726e-001
H2O(g)             0.24  1.723e+000  0.959  0.000e+000  5.458e-002  5.458e-002

-----------------------------Solution composition------------------------------

	Elements           Molality       Moles

	C                2.742e-002  2.740e-002
	Cl               4.004e+000  4.000e+000
	Na               4.004e+000  4.000e+000

----------------------------Description of solution----------------------------

                                       pH  =   3.778      Charge balance
                                       pe  =   4.000      Adjusted to redox equilibrium
       Specific Conductance (uS/cm, 120 oC) = 898176
                          Density (g/cm3)  =   1.08077
                               Volume (L)  =   1.14302
                        Activity of water  =   0.855
                           Ionic strength  =  4.004e+000
                       Mass of water (kg)  =  9.990e-001
                 Total alkalinity (eq/kg)  =  8.952e-013
                       Total CO2 (mol/kg)  =  2.742e-002
                      Temperature (deg C)  = 120.00
                           Pressure (atm)  =  7.17
                  Electrical balance (eq)  = -1.171e-011
 Percent error, 100*(Cat-|An|)/(Cat+|An|)  =  -0.00
                               Iterations  = 139
                         Gamma iterations  =   6
                      Osmotic coefficient  =   1.08323
                         Density of water  =   0.94316
                                  Total H  = 1.109033e+002
                                  Total O  = 5.550643e+001

----------------------------Distribution of species----------------------------

                                                    MacInnes  MacInnes
                                MacInnes       Log       Log       Log    mole V
   Species          Molality    Activity  Molality  Activity     Gamma   cm3/mol

   H+             1.119e-004  1.667e-004    -3.951    -3.778     0.173      0.00
   OH-            1.144e-008  5.519e-009    -7.941    -8.258    -0.317      0.04
   H2O            5.551e+001  8.549e-001     1.744    -0.068     0.000     19.10
C(4)         2.742e-002
   CO2            2.731e-002  5.183e-002    -1.564    -1.285     0.278     19.68
   HCO3-          1.119e-004  7.758e-005    -3.951    -4.110    -0.159     31.14
   CO3-2          7.845e-010  2.729e-011    -9.105   -10.564    -1.459      1.17
Cl           4.004e+000
   Cl-            4.004e+000  2.631e+000     0.602     0.420    -0.182     18.63
Na           4.004e+000
   Na+            4.004e+000  2.866e+000     0.602     0.457    -0.145      1.86

------------------------------Saturation indices-------------------------------

	Phase               SI   log IAP   log K(393 K,   7 atm)

	CO2(g)            0.73     -1.29   -2.01  CO2	 Pressure   5.5 atm, phi 0.985.
	H2O(g)            0.22     -0.07   -0.29  H2O	 Pressure   1.7 atm, phi 0.959.
	Halite           -0.65      0.88    1.52  NaCl
	Nahcolite        -3.14    -13.88  -10.74  NaHCO3
	Natron           -9.49    -10.33   -0.84  Na2CO3:10H2O
	Trona           -12.29    -23.67  -11.38  Na3H(CO3)2:2H2O


Reaction step 2.

Using solution 1.	
Using gas phase 1.	
Using reaction 1.	

Reaction 1.	

	 2.000e-001 moles of the following reaction have been added:

	                 Relative
	Reactant            moles

	CO2                  1.00000

	                 Relative
	Element             moles
	C                    1.00000
	O                    2.00000

-----------------------------------Gas phase-----------------------------------

Total pressure: 12.58      atmospheres          (Peng-Robinson calculation)
    Gas volume:  1.00e+000 liters
  Molar volume:  2.48e+000 liters/mole
   P * Vm / RT:  0.96706  (Compressibility Factor Z) 

                                                        Moles in gas
                                            ----------------------------------
Component         log P           P    phi     Initial       Final       Delta

CO2(g)             1.03  1.081e+001  0.973  1.726e-001  3.466e-001  1.740e-001
H2O(g)             0.25  1.772e+000  0.935  5.458e-002  5.679e-002  2.214e-003

-----------------------------Solution composition------------------------------

	Elements           Molality       Moles

	C                5.348e-002  5.343e-002
	Cl               4.004e+000  4.000e+000
	Na               4.004e+000  4.000e+000

----------------------------Description of solution----------------------------

                                       pH  =   3.633      Charge balance
                                       pe  =   4.000      Adjusted to redox equilibrium
       Specific Conductance (uS/cm, 120 oC) = 901578
                          Density (g/cm3)  =   1.08181
                               Volume (L)  =   1.14412
                        Activity of water  =   0.854
                           Ionic strength  =  4.004e+000
                       Mass of water (kg)  =  9.990e-001
                 Total alkalinity (eq/kg)  =  8.807e-013
                       Total CO2 (mol/kg)  =  5.348e-002
                      Temperature (deg C)  = 120.00
                           Pressure (atm)  = 12.58
                  Electrical balance (eq)  = -1.169e-011
 Percent error, 100*(Cat-|An|)/(Cat+|An|)  =  -0.00
                               Iterations  =  45
                         Gamma iterations  =   5
                      Osmotic coefficient  =   1.08505
                         Density of water  =   0.94316
                                  Total H  = 1.108988e+002
                                  Total O  = 5.555628e+001

----------------------------Distribution of species----------------------------

                                                    MacInnes  MacInnes
                                MacInnes       Log       Log       Log    mole V
   Species          Molality    Activity  Molality  Activity     Gamma   cm3/mol

   H+             1.564e-004  2.329e-004    -3.806    -3.633     0.173      0.00
   OH-            8.207e-009  3.959e-009    -8.086    -8.402    -0.317      0.08
   H2O            5.551e+001  8.542e-001     1.744    -0.068     0.000     19.09
C(4)         5.348e-002
   CO2            5.332e-002  1.012e-001    -1.273    -0.995     0.278     19.78
   HCO3-          1.563e-004  1.085e-004    -3.806    -3.965    -0.159     31.16
   CO3-2          7.884e-010  2.744e-011    -9.103   -10.562    -1.458      1.23
Cl           4.004e+000
   Cl-            4.004e+000  2.632e+000     0.603     0.420    -0.182     18.64
Na           4.004e+000
   Na+            4.004e+000  2.879e+000     0.603     0.459    -0.143      1.87

------------------------------Saturation indices-------------------------------

	Phase               SI   log IAP   log K(393 K,  13 atm)

	CO2(g)            1.02     -0.99   -2.01  CO2	 Pressure  10.8 atm, phi 0.973.
	H2O(g)            0.22     -0.07   -0.29  H2O	 Pressure   1.8 atm, phi 0.935.
	Halite           -0.65      0.88    1.53  NaCl
	Nahcolite        -2.99    -13.74  -10.74  NaHCO3
	Natron           -9.47    -10.33   -0.86  Na2CO3:10H2O
	Trona           -12.14    -23.52  -11.37  Na3H(CO3)2:2H2O


Reaction step 3.

Using solution 1.	
Using gas phase 1.	
Using reaction 1.	

Reaction 1.	

	 2.000e-001 moles of the following reaction have been added:

	                 Relative
	Reactant            moles

	CO2                  1.00000

	                 Relative
	Element             moles
	C                    1.00000
	O                    2.00000

-----------------------------------Gas phase-----------------------------------

Total pressure: 17.90      atmospheres          (Peng-Robinson calculation)
    Gas volume:  1.00e+000 liters
  Molar volume:  1.72e+000 liters/mole
   P * Vm / RT:  0.95529  (Compressibility Factor Z) 

                                                        Moles in gas
                                            ----------------------------------
Component         log P           P    phi     Initial       Final       Delta

CO2(g)             1.21  1.608e+001  0.961  3.466e-001  5.218e-001  1.752e-001
H2O(g)             0.26  1.821e+000  0.912  5.679e-002  5.908e-002  2.286e-003

-----------------------------Solution composition------------------------------

	Elements           Molality       Moles

	C                7.829e-002  7.820e-002
	Cl               4.004e+000  4.000e+000
	Na               4.004e+000  4.000e+000

----------------------------Description of solution----------------------------

                                       pH  =   3.550      Charge balance
                                       pe  =   4.000      Adjusted to redox equilibrium
       Specific Conductance (uS/cm, 120 oC) = 904831
                          Density (g/cm3)  =   1.08254
                               Volume (L)  =   1.14544
                        Activity of water  =   0.854
                           Ionic strength  =  4.004e+000
                       Mass of water (kg)  =  9.989e-001
                 Total alkalinity (eq/kg)  =  8.630e-013
                       Total CO2 (mol/kg)  =  7.829e-002
                      Temperature (deg C)  = 120.00
                           Pressure (atm)  = 17.90
                  Electrical balance (eq)  = -1.167e-011
 Percent error, 100*(Cat-|An|)/(Cat+|An|)  =  -0.00
                               Iterations  =  48
                         Gamma iterations  =   5
                      Osmotic coefficient  =   1.08676
                         Density of water  =   0.94316
                                  Total H  = 1.108943e+002
                                  Total O  = 5.560354e+001

----------------------------Distribution of species----------------------------

                                                    MacInnes  MacInnes
                                MacInnes       Log       Log       Log    mole V
   Species          Molality    Activity  Molality  Activity     Gamma   cm3/mol

   H+             1.893e-004  2.819e-004    -3.723    -3.550     0.173      0.00
   OH-            6.796e-009  3.279e-009    -8.168    -8.484    -0.316      0.10
   H2O            5.551e+001  8.536e-001     1.744    -0.069     0.000     19.09
C(4)         7.829e-002
   CO2            7.810e-002  1.482e-001    -1.107    -0.829     0.278     19.88
   HCO3-          1.893e-004  1.313e-004    -3.723    -3.882    -0.159     31.17
   CO3-2          7.923e-010  2.759e-011    -9.101   -10.559    -1.458      1.27
Cl           4.004e+000
   Cl-            4.004e+000  2.632e+000     0.603     0.420    -0.182     18.64
Na           4.004e+000
   Na+            4.004e+000  2.890e+000     0.603     0.461    -0.142      1.88

------------------------------Saturation indices-------------------------------

	Phase               SI   log IAP   log K(393 K,  18 atm)

	CO2(g)            1.18     -0.83   -2.01  CO2	 Pressure  16.1 atm, phi 0.961.
	H2O(g)            0.22     -0.07   -0.29  H2O	 Pressure   1.8 atm, phi 0.912.
	Halite           -0.64      0.88    1.53  NaCl
	Nahcolite        -2.91    -13.65  -10.74  NaHCO3
	Natron           -9.46    -10.33   -0.87  Na2CO3:10H2O
	Trona           -12.05    -23.42  -11.37  Na3H(CO3)2:2H2O


Reaction step 4.

Using solution 1.	
Using gas phase 1.	
Using reaction 1.	

Reaction 1.	

	 2.000e-001 moles of the following reaction have been added:

	                 Relative
	Reactant            moles

	CO2                  1.00000

	                 Relative
	Element             moles
	C                    1.00000
	O                    2.00000

-----------------------------------Gas phase-----------------------------------

Total pressure: 23.13      atmospheres          (Peng-Robinson calculation)
    Gas volume:  1.00e+000 liters
  Molar volume:  1.32e+000 liters/mole
   P * Vm / RT:  0.94368  (Compressibility Factor Z) 

                                                        Moles in gas
                                            ----------------------------------
Component         log P           P    phi     Initial       Final       Delta

CO2(g)             1.33  2.126e+001  0.950  5.218e-001  6.982e-001  1.764e-001
H2O(g)             0.27  1.870e+000  0.890  5.908e-002  6.144e-002  2.358e-003

-----------------------------Solution composition------------------------------

	Elements           Molality       Moles

	C                1.019e-001  1.018e-001
	Cl               4.004e+000  4.000e+000
	Na               4.004e+000  4.000e+000

----------------------------Description of solution----------------------------

                                       pH  =   3.493      Charge balance
                                       pe  =   4.000      Adjusted to redox equilibrium
       Specific Conductance (uS/cm, 120 oC) = 907950
                          Density (g/cm3)  =   1.08324
                               Volume (L)  =   1.14669
                        Activity of water  =   0.853
                           Ionic strength  =  4.005e+000
                       Mass of water (kg)  =  9.989e-001
                 Total alkalinity (eq/kg)  =  8.426e-013
                       Total CO2 (mol/kg)  =  1.019e-001
                      Temperature (deg C)  = 120.00
                           Pressure (atm)  = 23.13
                  Electrical balance (eq)  = -1.165e-011
 Percent error, 100*(Cat-|An|)/(Cat+|An|)  =  -0.00
                               Iterations  =  32
                         Gamma iterations  =   5
                      Osmotic coefficient  =   1.08839
                         Density of water  =   0.94316
                                  Total H  = 1.108896e+002
                                  Total O  = 5.564837e+001

----------------------------Distribution of species----------------------------

                                                    MacInnes  MacInnes
                                MacInnes       Log       Log       Log    mole V
   Species          Molality    Activity  Molality  Activity     Gamma   cm3/mol

   H+             2.160e-004  3.217e-004    -3.665    -3.493     0.173      0.00
   OH-            5.968e-009  2.880e-009    -8.224    -8.541    -0.316      0.13
   H2O            5.551e+001  8.530e-001     1.744    -0.069     0.000     19.08
C(4)         1.019e-001
   CO2            1.017e-001  1.930e-001    -0.993    -0.714     0.278     19.97
   HCO3-          2.160e-004  1.499e-004    -3.665    -3.824    -0.159     31.19
   CO3-2          7.962e-010  2.773e-011    -9.099   -10.557    -1.458      1.30
Cl           4.004e+000
   Cl-            4.004e+000  2.632e+000     0.603     0.420    -0.182     18.64
Na           4.004e+000
   Na+            4.004e+000  2.901e+000     0.603     0.463    -0.140      1.89

------------------------------Saturation indices-------------------------------

	Phase               SI   log IAP   log K(393 K,  23 atm)

	CO2(g)            1.29     -0.71   -2.01  CO2	 Pressure  21.3 atm, phi 0.950.
	H2O(g)            0.22     -0.07   -0.29  H2O	 Pressure   1.9 atm, phi 0.890.
	Halite           -0.64      0.88    1.53  NaCl
	Nahcolite        -2.84    -13.59  -10.74  NaHCO3
	Natron           -9.44    -10.32   -0.88  Na2CO3:10H2O
	Trona           -11.99    -23.36  -11.37  Na3H(CO3)2:2H2O


Reaction step 5.

Using solution 1.	
Using gas phase 1.	
Using reaction 1.	

Reaction 1.	

	 2.000e-001 moles of the following reaction have been added:

	                 Relative
	Reactant            moles

	CO2                  1.00000

	                 Relative
	Element             moles
	C                    1.00000
	O                    2.00000

-----------------------------------Gas phase-----------------------------------

Total pressure: 28.26      atmospheres          (Peng-Robinson calculation)
    Gas volume:  1.00e+000 liters
  Molar volume:  1.06e+000 liters/mole
   P * Vm / RT:  0.93230  (Compressibility Factor Z) 

                                                        Moles in gas
                                            ----------------------------------
Component         log P           P    phi     Initial       Final       Delta

CO2(g)             1.42  2.634e+001  0.939  6.982e-001  8.757e-001  1.775e-001
H2O(g)             0.28  1.921e+000  0.869  6.144e-002  6.387e-002  2.431e-003

-----------------------------Solution composition------------------------------

	Elements           Molality       Moles

	C                1.244e-001  1.243e-001
	Cl               4.005e+000  4.000e+000
	Na               4.005e+000  4.000e+000

----------------------------Description of solution----------------------------

                                       pH  =   3.449      Charge balance
                                       pe  =   4.000      Adjusted to redox equilibrium
       Specific Conductance (uS/cm, 120 oC) = 910941
                          Density (g/cm3)  =   1.08390
                               Volume (L)  =   1.14787
                        Activity of water  =   0.852
                           Ionic strength  =  4.005e+000
                       Mass of water (kg)  =  9.988e-001
                 Total alkalinity (eq/kg)  =  8.197e-013
                       Total CO2 (mol/kg)  =  1.244e-001
                      Temperature (deg C)  = 120.00
                           Pressure (atm)  = 28.26
                  Electrical balance (eq)  = -1.163e-011
 Percent error, 100*(Cat-|An|)/(Cat+|An|)  =  -0.00
                               Iterations  =  32
                         Gamma iterations  =   5
                      Osmotic coefficient  =   1.08992
                         Density of water  =   0.94316
                                  Total H  = 1.108847e+002
                                  Total O  = 5.569087e+001

----------------------------Distribution of species----------------------------

                                                    MacInnes  MacInnes
                                MacInnes       Log       Log       Log    mole V
   Species          Molality    Activity  Molality  Activity     Gamma   cm3/mol

   H+             2.388e-004  3.555e-004    -3.622    -3.449     0.173      0.00
   OH-            5.411e-009  2.612e-009    -8.267    -8.583    -0.316      0.15
   H2O            5.551e+001  8.524e-001     1.744    -0.069     0.000     19.08
C(4)         1.244e-001
   CO2            1.242e-001  2.357e-001    -0.906    -0.628     0.278     20.07
   HCO3-          2.388e-004  1.658e-004    -3.622    -3.780    -0.158     31.20
   CO3-2          7.999e-010  2.787e-011    -9.097   -10.555    -1.458      1.33
Cl           4.005e+000
   Cl-            4.005e+000  2.632e+000     0.603     0.420    -0.182     18.65
Na           4.005e+000
   Na+            4.005e+000  2.912e+000     0.603     0.464    -0.138      1.90

------------------------------Saturation indices-------------------------------

	Phase               SI   log IAP   log K(393 K,  28 atm)

	CO2(g)            1.38     -0.63   -2.01  CO2	 Pressure  26.3 atm, phi 0.939.
	H2O(g)            0.22     -0.07   -0.29  H2O	 Pressure   1.9 atm, phi 0.869.
	Halite           -0.64      0.88    1.53  NaCl
	Nahcolite        -2.80    -13.54  -10.74  NaHCO3
	Natron           -9.42    -10.32   -0.90  Na2CO3:10H2O
	Trona           -11.94    -23.30  -11.36  Na3H(CO3)2:2H2O


Reaction step 6.

WARNING: Maximum iterations exceeded, 200

WARNING: Numerical method failed with this set of convergence parameters.

WARNING: Trying smaller step size, pe step size 10, 5 ... 

Using solution 1.	
Using gas phase 1.	
Using reaction 1.	

Reaction 1.	

	 1.000e+000 moles of the following reaction have been added:

	                 Relative
	Reactant            moles

	CO2                  1.00000

	                 Relative
	Element             moles
	C                    1.00000
	O                    2.00000

-----------------------------------Gas phase-----------------------------------

Total pressure: 52.62      atmospheres          (Peng-Robinson calculation)
    Gas volume:  1.00e+000 liters
  Molar volume:  5.39e-001 liters/mole
   P * Vm / RT:  0.87912  (Compressibility Factor Z) 

                                                        Moles in gas
                                            ----------------------------------
Component         log P           P    phi     Initial       Final       Delta

CO2(g)             1.70  5.043e+001  0.890  8.757e-001  1.778e+000  9.025e-001
H2O(g)             0.34  2.188e+000  0.772  6.387e-002  7.714e-002  1.327e-002

-----------------------------Solution composition------------------------------

	Elements           Molality       Moles

	C                2.221e-001  2.218e-001
	Cl               4.006e+000  4.000e+000
	Na               4.006e+000  4.000e+000

----------------------------Description of solution----------------------------

                                       pH  =   3.323      Charge balance
                                       pe  =   4.000      Adjusted to redox equilibrium
       Specific Conductance (uS/cm, 120 oC) = 924207
                          Density (g/cm3)  =   1.08683
                               Volume (L)  =   1.15290
                        Activity of water  =   0.850
                           Ionic strength  =  4.006e+000
                       Mass of water (kg)  =  9.986e-001
                 Total alkalinity (eq/kg)  =  1.472e-012
                       Total CO2 (mol/kg)  =  2.221e-001
                      Temperature (deg C)  = 120.00
                           Pressure (atm)  = 52.62
                  Electrical balance (eq)  = -1.151e-011
 Percent error, 100*(Cat-|An|)/(Cat+|An|)  =  -0.00
                               Iterations  =  15
                         Gamma iterations  =  15
                      Osmotic coefficient  =   1.09652
                         Density of water  =   0.94316
                                  Total H  = 1.108582e+002
                                  Total O  = 5.587259e+001

----------------------------Distribution of species----------------------------

                                                    MacInnes  MacInnes
                                MacInnes       Log       Log       Log    mole V
   Species          Molality    Activity  Molality  Activity     Gamma   cm3/mol

   H+             3.197e-004  4.755e-004    -3.495    -3.323     0.173      0.00
   OH-            4.087e-009  1.975e-009    -8.389    -8.705    -0.316      0.27
   H2O            5.551e+001  8.499e-001     1.744    -0.071     0.000     19.05
C(4)         2.221e-001
   CO2            2.217e-001  4.209e-001    -0.654    -0.376     0.278     20.51
   HCO3-          3.197e-004  2.222e-004    -3.495    -3.653    -0.158     31.25
   CO3-2          8.179e-010  2.855e-011    -9.087   -10.544    -1.457      1.49
Cl           4.006e+000
   Cl-            4.006e+000  2.633e+000     0.603     0.420    -0.182     18.66
Na           4.006e+000
   Na+            4.006e+000  2.959e+000     0.603     0.471    -0.132      1.95

------------------------------Saturation indices-------------------------------

	Phase               SI   log IAP   log K(393 K,  53 atm)

	CO2(g)            1.63     -0.38   -2.00  CO2	 Pressure  50.4 atm, phi 0.890.
	H2O(g)            0.23     -0.07   -0.30  H2O	 Pressure   2.2 atm, phi 0.772.
	Halite           -0.64      0.89    1.53  NaCl
	Nahcolite        -2.65    -13.40  -10.74  NaHCO3
	Natron           -9.35    -10.31   -0.96  Na2CO3:10H2O
	Trona           -11.80    -23.14  -11.34  Na3H(CO3)2:2H2O


Reaction step 7.

WARNING: Maximum iterations exceeded, 200

WARNING: Numerical method failed with this set of convergence parameters.

WARNING: Trying smaller step size, pe step size 10, 5 ... 

Using solution 1.	
Using gas phase 1.	
Using reaction 1.	

Reaction 1.	

	 1.000e+000 moles of the following reaction have been added:

	                 Relative
	Reactant            moles

	CO2                  1.00000

	                 Relative
	Element             moles
	C                    1.00000
	O                    2.00000

-----------------------------------Gas phase-----------------------------------

Total pressure: 75.01      atmospheres          (Peng-Robinson calculation)
    Gas volume:  1.00e+000 liters
  Molar volume:  3.58e-001 liters/mole
   P * Vm / RT:  0.83238  (Compressibility Factor Z) 

                                                        Moles in gas
                                            ----------------------------------
Component         log P           P    phi     Initial       Final       Delta

CO2(g)             1.86  7.253e+001  0.848  1.778e+000  2.701e+000  9.227e-001
H2O(g)             0.39  2.479e+000  0.689  7.714e-002  9.231e-002  1.517e-002

-----------------------------Solution composition------------------------------

	Elements           Molality       Moles

	C                2.996e-001  2.991e-001
	Cl               4.007e+000  4.000e+000
	Na               4.007e+000  4.000e+000

----------------------------Description of solution----------------------------

                                       pH  =   3.257      Charge balance
                                       pe  =   4.000      Adjusted to redox equilibrium
       Specific Conductance (uS/cm, 120 oC) = 935116
                          Density (g/cm3)  =   1.08922
                               Volume (L)  =   1.15673
                        Activity of water  =   0.848
                           Ionic strength  =  4.007e+000
                       Mass of water (kg)  =  9.983e-001
                 Total alkalinity (eq/kg)  =  2.103e-012
                       Total CO2 (mol/kg)  =  2.996e-001
                      Temperature (deg C)  = 120.00
                           Pressure (atm)  = 75.01
                  Electrical balance (eq)  = -1.161e-011
 Percent error, 100*(Cat-|An|)/(Cat+|An|)  =  -0.00
                               Iterations  =  15
                         Gamma iterations  =  15
                      Osmotic coefficient  =   1.10166
                         Density of water  =   0.94316
                                  Total H  = 1.108278e+002
                                  Total O  = 5.601212e+001

----------------------------Distribution of species----------------------------

                                                    MacInnes  MacInnes
                                MacInnes       Log       Log       Log    mole V
   Species          Molality    Activity  Molality  Activity     Gamma   cm3/mol

   H+             3.721e-004  5.533e-004    -3.429    -3.257     0.172      0.00
   OH-            3.547e-009  1.715e-009    -8.450    -8.766    -0.316      0.38
   H2O            5.551e+001  8.479e-001     1.744    -0.072     0.000     19.03
C(4)         2.996e-001
   CO2            2.992e-001  5.681e-001    -0.524    -0.246     0.278     20.92
   HCO3-          3.721e-004  2.588e-004    -3.429    -3.587    -0.158     31.30
   CO3-2          8.346e-010  2.918e-011    -9.079   -10.535    -1.456      1.63
Cl           4.007e+000
   Cl-            4.007e+000  2.634e+000     0.603     0.421    -0.182     18.67
Na           4.007e+000
   Na+            4.007e+000  2.997e+000     0.603     0.477    -0.126      1.99

------------------------------Saturation indices-------------------------------

	Phase               SI   log IAP   log K(393 K,  75 atm)

	CO2(g)            1.75     -0.25   -2.00  CO2	 Pressure  72.5 atm, phi 0.848.
	H2O(g)            0.23     -0.07   -0.30  H2O	 Pressure   2.5 atm, phi 0.689.
	Halite           -0.63      0.90    1.53  NaCl
	Nahcolite        -2.57    -13.32  -10.75  NaHCO3
	Natron           -9.28    -10.30   -1.02  Na2CO3:10H2O
	Trona           -11.71    -23.04  -11.33  Na3H(CO3)2:2H2O


Reaction step 8.

WARNING: Maximum iterations exceeded, 200

WARNING: Numerical method failed with this set of convergence parameters.

WARNING: Trying smaller step size, pe step size 10, 5 ... 

Using solution 1.	
Using gas phase 1.	
Using reaction 1.	

Reaction 1.	

	 1.000e+000 moles of the following reaction have been added:

	                 Relative
	Reactant            moles

	CO2                  1.00000

	                 Relative
	Element             moles
	C                    1.00000
	O                    2.00000

-----------------------------------Gas phase-----------------------------------

Total pressure: 95.76      atmospheres          (Peng-Robinson calculation)
    Gas volume:  1.00e+000 liters
  Molar volume:  2.67e-001 liters/mole
   P * Vm / RT:  0.79198  (Compressibility Factor Z) 

                                                        Moles in gas
[...]

                                       pH  =   3.634      Charge balance
                                       pe  =   4.000      Adjusted to redox equilibrium
       Specific Conductance (uS/cm, 160 oC) = 990616
                          Density (g/cm3)  =   1.05643
                               Volume (L)  =   1.18414
                        Activity of water  =   0.856
                           Ionic strength  =  4.015e+000
                       Mass of water (kg)  =  9.962e-001
                 Total alkalinity (eq/kg)  =  3.868e-012
                       Total CO2 (mol/kg)  =  2.264e-001
                      Temperature (deg C)  = 160.00
                           Pressure (atm)  = 63.06
                  Electrical balance (eq)  = -3.322e-011
 Percent error, 100*(Cat-|An|)/(Cat+|An|)  =  -0.00
                               Iterations  =  18
                         Gamma iterations  =  18
                      Osmotic coefficient  =   1.04731
                         Density of water  =   0.90750
                                  Total H  = 1.105913e+002
                                  Total O  = 5.574674e+001

----------------------------Distribution of species----------------------------

                                                    MacInnes  MacInnes
                                MacInnes       Log       Log       Log    mole V
   Species          Molality    Activity  Molality  Activity     Gamma   cm3/mol

   H+             2.330e-004  2.322e-004    -3.633    -3.634    -0.002      0.00
   OH-            1.961e-008  1.049e-008    -7.708    -7.979    -0.272     -3.79
   H2O            5.551e+001  8.557e-001     1.744    -0.068     0.000     19.78
C(4)         2.264e-001
   CO2            2.262e-001  4.300e-001    -0.646    -0.367     0.279     19.30
   HCO3-          2.330e-004  2.313e-004    -3.633    -3.636    -0.003     28.91
   CO3-2          8.450e-010  3.610e-011    -9.073   -10.443    -1.369     -3.28
Cl           4.015e+000
   Cl-            4.015e+000  2.643e+000     0.604     0.422    -0.182     16.33
Na           4.015e+000
   Na+            4.015e+000  2.106e+000     0.604     0.324    -0.280      2.59

------------------------------Saturation indices-------------------------------

	Phase               SI   log IAP   log K(433 K,  63 atm)

	CO2(g)            1.68     -0.37   -2.05  CO2	 Pressure  56.4 atm, phi 0.912.
	H2O(g)            0.72     -0.07   -0.78  H2O	 Pressure   6.7 atm, phi 0.778.
	Halite           -0.66      0.75    1.41  NaCl
	Nahcolite        -3.01    -13.75  -10.74  NaHCO3
	Natron           -9.50    -10.47   -0.98  Na2CO3:10H2O
	Trona           -12.35    -23.68  -11.33  Na3H(CO3)2:2H2O


Reaction step 7.

WARNING: Maximum iterations exceeded, 200

WARNING: Numerical method failed with this set of convergence parameters.

WARNING: Trying smaller step size, pe step size 10, 5 ... 

Using solution 1.	
Using gas phase 1.	
Using reaction 1.	

Reaction 1.	

	 1.000e+000 moles of the following reaction have been added:

	                 Relative
	Reactant            moles

	CO2                  1.00000

	                 Relative
	Element             moles
	C                    1.00000
	O                    2.00000

-----------------------------------Gas phase-----------------------------------

Total pressure: 89.62      atmospheres          (Peng-Robinson calculation)
    Gas volume:  1.00e+000 liters
  Molar volume:  3.41e-001 liters/mole
   P * Vm / RT:  0.85946  (Compressibility Factor Z) 

                                                        Moles in gas
                                            ----------------------------------
Component         log P           P    phi     Initial       Final       Delta

CO2(g)             1.91  8.214e+001  0.878  1.774e+000  2.689e+000  9.142e-001
H2O(g)             0.87  7.479e+000  0.705  2.106e-001  2.448e-001  3.424e-002

-----------------------------Solution composition------------------------------

	Elements           Molality       Moles

	C                3.127e-001  3.113e-001
	Cl               4.018e+000  4.000e+000
	Na               4.018e+000  4.000e+000

----------------------------Description of solution----------------------------

                                       pH  =   3.563      Charge balance
                                       pe  =   4.000      Adjusted to redox equilibrium
       Specific Conductance (uS/cm, 160 oC) = 999472
                          Density (g/cm3)  =   1.05947
                               Volume (L)  =   1.18769
                        Activity of water  =   0.853
                           Ionic strength  =  4.018e+000
                       Mass of water (kg)  =  9.956e-001
                 Total alkalinity (eq/kg)  =  3.713e-012
                       Total CO2 (mol/kg)  =  3.127e-001
                      Temperature (deg C)  = 160.00
                           Pressure (atm)  = 89.62
                  Electrical balance (eq)  = -3.334e-011
 Percent error, 100*(Cat-|An|)/(Cat+|An|)  =  -0.00
                               Iterations  =  14
                         Gamma iterations  =  14
                      Osmotic coefficient  =   1.05358
                         Density of water  =   0.90750
                                  Total H  = 1.105228e+002
                                  Total O  = 5.588403e+001

----------------------------Distribution of species----------------------------

                                                    MacInnes  MacInnes
                                MacInnes       Log       Log       Log    mole V
   Species          Molality    Activity  Molality  Activity     Gamma   cm3/mol

   H+             2.746e-004  2.736e-004    -3.561    -3.563    -0.002      0.00
   OH-            1.687e-008  9.031e-009    -7.773    -8.044    -0.271     -3.57
   H2O            5.551e+001  8.535e-001     1.744    -0.069     0.000     19.74
C(4)         3.127e-001
   CO2            3.124e-001  5.942e-001    -0.505    -0.226     0.279     19.84
   HCO3-          2.746e-004  2.729e-004    -3.561    -3.564    -0.003     29.02
   CO3-2          8.649e-010  3.702e-011    -9.063   -10.432    -1.368     -3.07
Cl           4.018e+000
   Cl-            4.018e+000  2.645e+000     0.604     0.422    -0.182     16.39
Na           4.018e+000
   Na+            4.018e+000  2.137e+000     0.604     0.330    -0.274      2.62

------------------------------Saturation indices-------------------------------

	Phase               SI   log IAP   log K(433 K,  90 atm)

	CO2(g)            1.81     -0.23   -2.04  CO2	 Pressure  82.1 atm, phi 0.878.
	H2O(g)            0.72     -0.07   -0.79  H2O	 Pressure   7.5 atm, phi 0.705.
	Halite           -0.66      0.75    1.41  NaCl
	Nahcolite        -2.92    -13.66  -10.74  NaHCO3
	Natron           -9.42    -10.46   -1.04  Na2CO3:10H2O
	Trona           -12.26    -23.57  -11.31  Na3H(CO3)2:2H2O


Reaction step 8.

Using solution 1.	
Using gas phase 1.	
Using reaction 1.	

Reaction 1.	

	 1.000e+000 moles of the following reaction have been added:

	                 Relative
	Reactant            moles

	CO2                  1.00000

	                 Relative
	Element             moles
	C                    1.00000
	O                    2.00000

-----------------------------------Gas phase-----------------------------------

Total pressure: 115.09      atmospheres          (Peng-Robinson calculation)
    Gas volume:  1.00e+000 liters
  Molar volume:  2.57e-001 liters/mole
   P * Vm / RT:  0.83076  (Compressibility Factor Z) 

                                                        Moles in gas
                                            ----------------------------------
Component         log P           P    phi     Initial       Final       Delta

CO2(g)             2.03  1.068e+002  0.849  2.689e+000  3.615e+000  9.267e-001
H2O(g)             0.92  8.334e+000  0.640  2.448e-001  2.822e-001  3.741e-002

-----------------------------Solution composition------------------------------

	Elements           Molality       Moles

	C                3.865e-001  3.846e-001
	Cl               4.020e+000  4.000e+000
	Na               4.020e+000  4.000e+000

----------------------------Description of solution----------------------------

                                       pH  =   3.516      Charge balance
                                       pe  =   4.000      Adjusted to redox equilibrium
       Specific Conductance (uS/cm, 160 oC) = 1007380
                          Density (g/cm3)  =   1.06213
                               Volume (L)  =   1.19049
                        Activity of water  =   0.851
                           Ionic strength  =  4.021e+000
                       Mass of water (kg)  =  9.949e-001
                 Total alkalinity (eq/kg)  =  3.611e-012
                       Total CO2 (mol/kg)  =  3.865e-001
                      Temperature (deg C)  = 160.00
                           Pressure (atm)  = 115.09
                  Electrical balance (eq)  = -3.323e-011
 Percent error, 100*(Cat-|An|)/(Cat+|An|)  =  -0.00
                               Iterations  =  54
                         Gamma iterations  =   5
                      Osmotic coefficient  =   1.05886
                         Density of water  =   0.90750
                                  Total H  = 1.104480e+002
                                  Total O  = 5.599313e+001

----------------------------Distribution of species----------------------------

                                                    MacInnes  MacInnes
                                MacInnes       Log       Log       Log    mole V
   Species          Molality    Activity  Molality  Activity     Gamma   cm3/mol

   H+             3.062e-004  3.050e-004    -3.514    -3.516    -0.002      0.00
   OH-            1.533e-008  8.211e-009    -7.814    -8.086    -0.271     -3.37
   H2O            5.551e+001  8.515e-001     1.744    -0.070     0.000     19.71
C(4)         3.865e-001
   CO2            3.862e-001  7.349e-001    -0.413    -0.134     0.279     20.34
   HCO3-          3.062e-004  3.047e-004    -3.514    -3.516    -0.002     29.12
   CO3-2          8.842e-010  3.792e-011    -9.053   -10.421    -1.368     -2.87
Cl           4.020e+000
   Cl-            4.020e+000  2.647e+000     0.604     0.423    -0.181     16.44
Na           4.020e+000
   Na+            4.020e+000  2.164e+000     0.604     0.335    -0.269      2.64

------------------------------Saturation indices-------------------------------

	Phase               SI   log IAP   log K(433 K, 115 atm)

	CO2(g)            1.90     -0.13   -2.03  CO2	 Pressure 106.8 atm, phi 0.849.
	H2O(g)            0.73     -0.07   -0.80  H2O	 Pressure   8.3 atm, phi 0.640.
	Halite           -0.66      0.76    1.41  NaCl
	Nahcolite        -2.86    -13.60  -10.74  NaHCO3
	Natron           -9.35    -10.45   -1.10  Na2CO3:10H2O
	Trona           -12.20    -23.49  -11.29  Na3H(CO3)2:2H2O


Reaction step 9.

WARNING: Maximum iterations exceeded, 200

WARNING: Numerical method failed with this set of convergence parameters.

WARNING: Trying smaller step size, pe step size 10, 5 ... 

Using solution 1.	
Using gas phase 1.	
Using reaction 1.	

Reaction 1.	

	 1.000e+000 moles of the following reaction have been added:

	                 Relative
	Reactant            moles

	CO2                  1.00000

	                 Relative
	Element             moles
	C                    1.00000
	O                    2.00000

-----------------------------------Gas phase-----------------------------------

Total pressure: 139.89      atmospheres          (Peng-Robinson calculation)
    Gas volume:  1.00e+000 liters
  Molar volume:  2.05e-001 liters/mole
   P * Vm / RT:  0.80745  (Compressibility Factor Z) 

                                                        Moles in gas
                                            ----------------------------------
Component         log P           P    phi     Initial       Final       Delta

CO2(g)             2.12  1.306e+002  0.823  3.615e+000  4.552e+000  9.362e-001
H2O(g)             0.97  9.261e+000  0.582  2.822e-001  3.227e-001  4.043e-002

-----------------------------Solution composition------------------------------

	Elements           Molality       Moles

	C                4.510e-001  4.484e-001
	Cl               4.023e+000  4.000e+000
	Na               4.023e+000  4.000e+000

----------------------------Description of solution----------------------------

                                       pH  =   3.481      Charge balance
                                       pe  =   4.000      Adjusted to redox equilibrium
       Specific Conductance (uS/cm, 160 oC) = 1014573
                          Density (g/cm3)  =   1.06452
                               Volume (L)  =   1.19271
                        Activity of water  =   0.850
                           Ionic strength  =  4.024e+000
                       Mass of water (kg)  =  9.942e-001
                 Total alkalinity (eq/kg)  =  4.487e-012
                       Total CO2 (mol/kg)  =  4.510e-001
                      Temperature (deg C)  = 160.00
                           Pressure (atm)  = 139.89
                  Electrical balance (eq)  = -3.556e-011
 Percent error, 100*(Cat-|An|)/(Cat+|An|)  =  -0.00
                               Iterations  =  12
                         Gamma iterations  =  12
                      Osmotic coefficient  =   1.06342
                         Density of water  =   0.90750
                                  Total H  = 1.103671e+002
                                  Total O  = 5.608034e+001

----------------------------Distribution of species----------------------------

                                                    MacInnes  MacInnes
                                MacInnes       Log       Log       Log    mole V
   Species          Molality    Activity  Molality  Activity     Gamma   cm3/mol

   H+             3.318e-004  3.306e-004    -3.479    -3.481    -0.002      0.00
   OH-            1.433e-008  7.678e-009    -7.844    -8.115    -0.271     -3.17
   H2O            5.551e+001  8.498e-001     1.744    -0.071     0.000     19.68
C(4)         4.510e-001
   CO2            4.507e-001  8.579e-001    -0.346    -0.067     0.280     20.81
   HCO3-          3.317e-004  3.305e-004    -3.479    -3.481    -0.002     29.21
   CO3-2          9.032e-010  3.880e-011    -9.044   -10.411    -1.367     -2.68
Cl           4.023e+000
   Cl-            4.023e+000  2.650e+000     0.605     0.423    -0.181     16.49
Na           4.023e+000
   Na+            4.023e+000  2.189e+000     0.605     0.340    -0.264      2.66

------------------------------Saturation indices-------------------------------

	Phase               SI   log IAP   log K(433 K, 140 atm)

	CO2(g)            1.96     -0.07   -2.02  CO2	 Pressure 130.6 atm, phi 0.823.
	H2O(g)            0.73     -0.07   -0.80  H2O	 Pressure   9.3 atm, phi 0.582.
	Halite           -0.65      0.76    1.42  NaCl
	Nahcolite        -2.81    -13.55  -10.74  NaHCO3
	Natron           -9.27    -10.44   -1.16  Na2CO3:10H2O
	Trona           -12.15    -23.42  -11.28  Na3H(CO3)2:2H2O


Reaction step 10.

Using solution 1.	
Using gas phase 1.	
Using reaction 1.	

Reaction 1.	

	 1.000e+000 moles of the following reaction have been added:

	                 Relative
	Reactant            moles

	CO2                  1.00000

	                 Relative
	Element             moles
	C                    1.00000
	O                    2.00000

-----------------------------------Gas phase-----------------------------------

Total pressure: 164.44      atmospheres          (Peng-Robinson calculation)
    Gas volume:  1.00e+000 liters
  Molar volume:  1.71e-001 liters/mole
   P * Vm / RT:  0.78940  (Compressibility Factor Z) 

                                                        Moles in gas
                                            ----------------------------------
Component         log P           P    phi     Initial       Final       Delta

CO2(g)             2.19  1.542e+002  0.800  4.552e+000  5.495e+000  9.432e-001
H2O(g)             1.01  1.027e+001  0.531  3.227e-001  3.659e-001  4.326e-002

-----------------------------Solution composition------------------------------

	Elements           Molality       Moles

	C                5.086e-001  5.052e-001
	Cl               4.027e+000  4.000e+000
	Na               4.027e+000  4.000e+000

----------------------------Description of solution----------------------------

                                       pH  =   3.453      Charge balance
                                       pe  =   4.000      Adjusted to redox equilibrium
       Specific Conductance (uS/cm, 160 oC) = 1021245
                          Density (g/cm3)  =   1.06672
                               Volume (L)  =   1.19448
                        Activity of water  =   0.848
                           Ionic strength  =  4.027e+000
                       Mass of water (kg)  =  9.934e-001
                 Total alkalinity (eq/kg)  =  4.708e-012
                       Total CO2 (mol/kg)  =  5.086e-001
                      Temperature (deg C)  = 160.00
                           Pressure (atm)  = 164.44
                  Electrical balance (eq)  = -3.579e-011
 Percent error, 100*(Cat-|An|)/(Cat+|An|)  =  -0.00
                               Iterations  =  62
                         Gamma iterations  =   6
                      Osmotic coefficient  =   1.06746
                         Density of water  =   0.90750
                                  Total H  = 1.102806e+002
                                  Total O  = 5.615069e+001

----------------------------Distribution of species----------------------------

                                                    MacInnes  MacInnes
                                MacInnes       Log       Log       Log    mole V
   Species          Molality    Activity  Molality  Activity     Gamma   cm3/mol

   H+             3.535e-004  3.523e-004    -3.452    -3.453    -0.001      0.00
   OH-            1.361e-008  7.298e-009    -7.866    -8.137    -0.271     -2.98
   H2O            5.551e+001  8.482e-001     1.744    -0.072     0.000     19.65
C(4)         5.086e-001
   CO2            5.082e-001  9.679e-001    -0.294    -0.014     0.280     21.28
   HCO3-          3.535e-004  3.526e-004    -3.452    -3.453    -0.001     29.31
   CO3-2          9.223e-010  3.968e-011    -9.035   -10.401    -1.366     -2.50
Cl           4.027e+000
   Cl-            4.027e+000  2.652e+000     0.605     0.424    -0.181     16.54
Na           4.027e+000
   Na+            4.027e+000  2.211e+000     0.605     0.345    -0.260      2.69

------------------------------Saturation indices-------------------------------

	Phase               SI   log IAP   log K(433 K, 164 atm)

	CO2(g)            2.00     -0.01   -2.02  CO2	 Pressure 154.2 atm, phi 0.800.
	H2O(g)            0.74     -0.07   -0.81  H2O	 Pressure  10.3 atm, phi 0.531.
	Halite           -0.65      0.77    1.42  NaCl
	Nahcolite        -2.77    -13.51  -10.74  NaHCO3
	Natron           -9.20    -10.43   -1.22  Na2CO3:10H2O
	Trona           -12.11    -23.37  -11.26  Na3H(CO3)2:2H2O


------------------
End of simulation.
------------------

------------------------------------
Reading input data for simulation 4.
------------------------------------

-------------------------------
End of Run after 0.414 Seconds.
-------------------------------

