WARNING: Database file from DATABASE keyword is used; command line argument ignored.
   Input file: donly
  Output file: donly.out
Database file: ../database/phreeqc.dat

------------------
Reading data base.
------------------

	SOLUTION_MASTER_SPECIES
	SOLUTION_SPECIES
	PHASES
	EXCHANGE_MASTER_SPECIES
	EXCHANGE_SPECIES
	SURFACE_MASTER_SPECIES
	SURFACE_SPECIES
	RATES
	END
------------------------------------
Reading input data for simulation 1.
------------------------------------

	DATABASE ../database/phreeqc.dat
	SOLUTION_SPREAD
	    units    mg/l
	 Number	 S(6)	 Alkalinity	 N(5)	   Cl	   Ca	   Mg	   Na	    K	   pH
	      	     	    as HCO3	     	     	     	     	     	     	     
	      0	  .03	       3038	  .05	 28.9	 50.5	 37.5	 1040	 47.4	 8.37
	   1-100	  380	        527	  .33	   15	 53.6	 23.8	  300	 17.5	 7.51
	END
-------------------------------------------
Beginning of initial solution calculations.
-------------------------------------------

Initial solution 0.	

-----------------------------Solution composition------------------------------

	Elements           Molality       Moles

	Alkalinity       5.000e-002  5.000e-002
	Ca               1.265e-003  1.265e-003
	Cl               8.186e-004  8.186e-004
	K                1.217e-003  1.217e-003
	Mg               1.549e-003  1.549e-003
	N(5)             3.585e-006  3.585e-006
	Na               4.543e-002  4.543e-002
	S(6)             3.136e-007  3.136e-007

----------------------------Description of solution----------------------------

                                       pH  =   8.370    
                                       pe  =   4.000    
       Specific Conductance (uS/cm, 25 oC) = 4003
                          Density (g/cm3)  =   1.00013
                               Volume (L)  =   1.00646
                        Activity of water  =   0.998
                           Ionic strength  =  4.969e-002
                       Mass of water (kg)  =  1.000e+000
                    Total carbon (mol/kg)  =  4.897e-002
                       Total CO2 (mol/kg)  =  4.897e-002
                      Temperature (deg C)  =  25.00
                  Electrical balance (eq)  =  1.454e-003
 Percent error, 100*(Cat-|An|)/(Cat+|An|)  =   1.55
                               Iterations  =   8
                                  Total H  = 1.110597e+002
                                  Total O  = 5.565281e+001

----------------------------Distribution of species----------------------------

                                               Log       Log       Log    mole V
   Species          Molality    Activity  Molality  Activity     Gamma   cm3/mol

   OH-            2.918e-006  2.369e-006    -5.535    -5.625    -0.090     -3.87
   H+             4.995e-009  4.266e-009    -8.301    -8.370    -0.069      0.00
   H2O            5.551e+001  9.984e-001     1.744    -0.001     0.000     18.07
C(4)         4.897e-002
   HCO3-          4.365e-002  3.619e-002    -1.360    -1.441    -0.081     24.95
   NaHCO3         3.131e-003  3.167e-003    -2.504    -2.499     0.005     19.41
   CO3-2          8.425e-004  3.978e-004    -3.074    -3.400    -0.326     -3.57
   CO2            3.437e-004  3.476e-004    -3.464    -3.459     0.005     30.26
   MgHCO3+        2.716e-004  2.218e-004    -3.566    -3.654    -0.088      5.61
   CaCO3          2.513e-004  2.542e-004    -3.600    -3.595     0.005    -14.60
   CaHCO3+        2.106e-004  1.756e-004    -3.676    -3.755    -0.079      9.79
   MgCO3          1.966e-004  1.989e-004    -3.706    -3.701     0.005    -17.09
   NaCO3-         7.469e-005  6.191e-005    -4.127    -4.208    -0.081     -0.36
Ca           1.265e-003
   Ca+2           8.034e-004  3.804e-004    -3.095    -3.420    -0.325    -17.62
   CaCO3          2.513e-004  2.542e-004    -3.600    -3.595     0.005    -14.60
   CaHCO3+        2.106e-004  1.756e-004    -3.676    -3.755    -0.079      9.79
   CaOH+          1.798e-008  1.477e-008    -7.745    -7.830    -0.085     (0)  
   CaSO4          8.162e-009  8.256e-009    -8.088    -8.083     0.005      7.50
   CaHSO4+        2.818e-016  2.315e-016   -15.550   -15.635    -0.085     (0)  
Cl           8.186e-004
   Cl-            8.186e-004  6.670e-004    -3.087    -3.176    -0.089     18.25
H(0)         2.547e-028
   H2             1.274e-028  1.288e-028   -27.895   -27.890     0.005     28.61
K            1.217e-003
   K+             1.217e-003  9.901e-004    -2.915    -3.004    -0.090      9.17
   KSO4-          1.024e-009  8.491e-010    -8.990    -9.071    -0.081     (0)  
Mg           1.549e-003
   Mg+2           1.080e-003  5.239e-004    -2.966    -3.281    -0.314    -21.32
   MgHCO3+        2.716e-004  2.218e-004    -3.566    -3.654    -0.088      5.61
   MgCO3          1.966e-004  1.989e-004    -3.706    -3.701     0.005    -17.09
   MgOH+          5.316e-007  4.452e-007    -6.274    -6.351    -0.077     (0)  
   MgSO4          1.482e-008  1.499e-008    -7.829    -7.824     0.005      5.84
N(5)         3.585e-006
   NO3-           3.585e-006  2.892e-006    -5.446    -5.539    -0.093     29.71
Na           4.543e-002
   Na+            4.222e-002  3.484e-002    -1.374    -1.458    -0.083     -1.19
   NaHCO3         3.131e-003  3.167e-003    -2.504    -2.499     0.005     19.41
   NaCO3-         7.469e-005  6.191e-005    -4.127    -4.208    -0.081     -0.36
   NaSO4-         2.571e-008  2.131e-008    -7.590    -7.671    -0.081     19.05
   NaOH           8.160e-018  8.254e-018   -17.088   -17.083     0.005     (0)  
O(0)         4.951e-037
   O2             2.475e-037  2.504e-037   -36.606   -36.601     0.005     30.40
S(6)         3.136e-007
   SO4-2          2.639e-007  1.221e-007    -6.579    -6.913    -0.335     14.73
   NaSO4-         2.571e-008  2.131e-008    -7.590    -7.671    -0.081     19.05
   MgSO4          1.482e-008  1.499e-008    -7.829    -7.824     0.005      5.84
   CaSO4          8.162e-009  8.256e-009    -8.088    -8.083     0.005      7.50
   KSO4-          1.024e-009  8.491e-010    -8.990    -9.071    -0.081     (0)  
   HSO4-          6.162e-014  5.062e-014   -13.210   -13.296    -0.085     40.45
   CaHSO4+        2.818e-016  2.315e-016   -15.550   -15.635    -0.085     (0)  

------------------------------Saturation indices-------------------------------

	Phase               SI   log IAP   log K(298 K,   1 atm)

	Anhydrite        -6.06    -10.33   -4.28  CaSO4
	Aragonite         1.52     -6.82   -8.34  CaCO3
	Calcite           1.66     -6.82   -8.48  CaCO3
	CO2(g)           -2.00     -3.46   -1.46  CO2
	Dolomite          3.59    -13.50  -17.09  CaMg(CO3)2
	Gypsum           -5.75    -10.33   -4.58  CaSO4:2H2O
	H2(g)           -24.79    -27.89   -3.10  H2
	H2O(g)           -1.50     -0.00    1.50  H2O
	Halite           -6.20     -4.63    1.57  NaCl
	O2(g)           -33.71    -36.60   -2.89  O2
	Sylvite          -7.08     -6.18    0.90  KCl


Initial solution 1.	

-----------------------------Solution composition------------------------------

	Elements           Molality       Moles

	Alkalinity       8.648e-003  8.648e-003
	Ca               1.339e-003  1.339e-003
	Cl               4.237e-004  4.237e-004
	K                4.481e-004  4.481e-004
	Mg               9.802e-004  9.802e-004
	N(5)             2.359e-005  2.359e-005
	Na               1.307e-002  1.307e-002
	S(6)             3.961e-003  3.961e-003

----------------------------Description of solution----------------------------

                                       pH  =   7.510    
                                       pe  =   4.000    
       Specific Conductance (uS/cm, 25 oC) = 1591
                          Density (g/cm3)  =   0.99814
                               Volume (L)  =   1.00391
                        Activity of water  =   1.000
                           Ionic strength  =  2.153e-002
                       Mass of water (kg)  =  1.000e+000
                    Total carbon (mol/kg)  =  9.111e-003
                       Total CO2 (mol/kg)  =  9.111e-003
                      Temperature (deg C)  =  25.00
                  Electrical balance (eq)  =  1.136e-003
 Percent error, 100*(Cat-|An|)/(Cat+|An|)  =   3.49
                               Iterations  =   8
                                  Total H  = 1.110210e+002
                                  Total O  = 5.554897e+001

----------------------------Distribution of species----------------------------

                                               Log       Log       Log    mole V
   Species          Molality    Activity  Molality  Activity     Gamma   cm3/mol

   OH-            3.794e-007  3.274e-007    -6.421    -6.485    -0.064     -3.98
   H+             3.485e-008  3.090e-008    -7.458    -7.510    -0.052      0.00
   H2O            5.551e+001  9.995e-001     1.744    -0.000     0.000     18.07
C(4)         9.111e-003
   HCO3-          8.271e-003  7.214e-003    -2.082    -2.142    -0.059     24.78
   CO2            4.990e-004  5.015e-004    -3.302    -3.300     0.002     30.26
   NaHCO3         1.998e-004  2.007e-004    -3.700    -3.697     0.002     19.41
   CaHCO3+        6.407e-005  5.606e-005    -4.193    -4.251    -0.058      9.75
   MgHCO3+        4.207e-005  3.641e-005    -4.376    -4.439    -0.063      5.56
   CO3-2          1.892e-005  1.095e-005    -4.723    -4.961    -0.238     -3.90
   CaCO3          1.115e-005  1.120e-005    -4.953    -4.951     0.002    -14.60
   MgCO3          4.484e-006  4.506e-006    -5.348    -5.346     0.002    -17.09
   NaCO3-         6.211e-007  5.417e-007    -6.207    -6.266    -0.059     -0.50
Ca           1.339e-003
   Ca+2           1.053e-003  6.090e-004    -2.978    -3.215    -0.238    -17.80
   CaSO4          2.112e-004  2.122e-004    -3.675    -3.673     0.002      7.50
   CaHCO3+        6.407e-005  5.606e-005    -4.193    -4.251    -0.058      9.75
   CaCO3          1.115e-005  1.120e-005    -4.953    -4.951     0.002    -14.60
   CaOH+          3.770e-009  3.269e-009    -8.424    -8.486    -0.062     (0)  
   CaHSO4+        4.972e-011  4.311e-011   -10.303   -10.365    -0.062     (0)  
Cl           4.237e-004
   Cl-            4.237e-004  3.662e-004    -3.373    -3.436    -0.063     18.18
H(0)         1.345e-026
   H2             6.727e-027  6.761e-027   -26.172   -26.170     0.002     28.61
K            4.481e-004
   K+             4.421e-004  3.818e-004    -3.354    -3.418    -0.064      9.11
   KSO4-          6.027e-006  5.257e-006    -5.220    -5.279    -0.059     (0)  
Mg           9.802e-004
   Mg+2           7.364e-004  4.313e-004    -3.133    -3.365    -0.232    -21.49
   MgSO4          1.972e-004  1.982e-004    -3.705    -3.703     0.002      5.84
   MgHCO3+        4.207e-005  3.641e-005    -4.376    -4.439    -0.063      5.56
   MgCO3          4.484e-006  4.506e-006    -5.348    -5.346     0.002    -17.09
   MgOH+          5.776e-008  5.065e-008    -7.238    -7.295    -0.057     (0)  
N(5)         2.359e-005
   NO3-           2.359e-005  2.029e-005    -4.627    -4.693    -0.065     29.64
Na           1.307e-002
   Na+            1.274e-002  1.108e-002    -1.895    -1.956    -0.061     -1.27
   NaHCO3         1.998e-004  2.007e-004    -3.700    -3.697     0.002     19.41
   NaSO4-         1.247e-004  1.088e-004    -3.904    -3.963    -0.059     18.76
   NaCO3-         6.211e-007  5.417e-007    -6.207    -6.266    -0.059     -0.50
   NaOH           3.609e-019  3.626e-019   -18.443   -18.441     0.002     (0)  
O(0)         0.000e+000
   O2             0.000e+000  0.000e+000   -40.043   -40.040     0.002     30.40
S(6)         3.961e-003
   SO4-2          3.422e-003  1.960e-003    -2.466    -2.708    -0.242     14.45
   CaSO4          2.112e-004  2.122e-004    -3.675    -3.673     0.002      7.50
   MgSO4          1.972e-004  1.982e-004    -3.705    -3.703     0.002      5.84
   NaSO4-         1.247e-004  1.088e-004    -3.904    -3.963    -0.059     18.76
   KSO4-          6.027e-006  5.257e-006    -5.220    -5.279    -0.059     (0)  
   HSO4-          6.791e-009  5.888e-009    -8.168    -8.230    -0.062     40.38
   CaHSO4+        4.972e-011  4.311e-011   -10.303   -10.365    -0.062     (0)  

------------------------------Saturation indices-------------------------------

	Phase               SI   log IAP   log K(298 K,   1 atm)

	Anhydrite        -1.65     -5.92   -4.28  CaSO4
	Aragonite         0.16     -8.18   -8.34  CaCO3
	Calcite           0.30     -8.18   -8.48  CaCO3
	CO2(g)           -1.84     -3.30   -1.46  CO2
	Dolomite          0.59    -16.50  -17.09  CaMg(CO3)2
	Gypsum           -1.34     -5.92   -4.58  CaSO4:2H2O
	H2(g)           -23.07    -26.17   -3.10  H2
	H2O(g)           -1.50     -0.00    1.50  H2O
	Halite           -6.96     -5.39    1.57  NaCl
	O2(g)           -37.15    -40.04   -2.89  O2
	Sylvite          -7.75     -6.85    0.90  KCl


------------------
End of simulation.
------------------

------------------------------------
Reading input data for simulation 2.
------------------------------------

	EXCHANGE 1-100
	 	X  1.5
		equilibrate 1
	END
-------------------------------------------------------
Beginning of initial exchange-composition calculations.
-------------------------------------------------------

Exchange 1.	

X               1.500e+000 mol

	                               Equiv-    Equivalent      Log 
	Species             Moles      alents      Fraction     Gamma

	CaX2             4.466e-001  8.933e-001  5.955e-001    -0.238
	MgX2             1.971e-001  3.943e-001  2.629e-001    -0.232
	NaX              1.810e-001  1.810e-001  1.206e-001    -0.061
	KX               3.147e-002  3.147e-002  2.098e-002    -0.064

------------------
End of simulation.
------------------

------------------------------------
Reading input data for simulation 3.
------------------------------------

	EQUILIBRIUM_PHASES 1-100
		Calcite 0 1
		Dolomite 0 1  dissolve
		Gypsum 0 1
	SOLUTION 1-4
		units mmol/kgw
		Na 100
		Cl 100	charge
	END
-------------------------------------------
Beginning of initial solution calculations.
-------------------------------------------

Initial solution 1.	

-----------------------------Solution composition------------------------------

	Elements           Molality       Moles

	Cl               1.000e-001  1.000e-001  Charge balance
	Na               1.000e-001  1.000e-001

----------------------------Description of solution----------------------------

                                       pH  =   7.000    
                                       pe  =   4.000    
       Specific Conductance (uS/cm, 25 oC) = 10820
                          Density (g/cm3)  =   1.00115
                               Volume (L)  =   1.00469
                        Activity of water  =   0.997
                           Ionic strength  =  1.000e-001
                       Mass of water (kg)  =  1.000e+000
                 Total alkalinity (eq/kg)  =  1.129e-008
                    Total carbon (mol/kg)  =  0.000e+000
                       Total CO2 (mol/kg)  =  0.000e+000
                      Temperature (deg C)  =  25.00
                  Electrical balance (eq)  = -1.182e-015
 Percent error, 100*(Cat-|An|)/(Cat+|An|)  =  -0.00
                               Iterations  =   9
                                  Total H  = 1.110124e+002
                                  Total O  = 5.550622e+001

----------------------------Distribution of species----------------------------

                                               Log       Log       Log    mole V
   Species          Molality    Activity  Molality  Activity     Gamma   cm3/mol

   OH-            1.324e-007  1.009e-007    -6.878    -6.996    -0.118     -3.73
   H+             1.212e-007  1.000e-007    -6.917    -7.000    -0.083      0.00
   H2O            5.551e+001  9.966e-001     1.744    -0.001     0.000     18.07
Cl           1.000e-001
   Cl-            1.000e-001  7.666e-002    -1.000    -1.115    -0.115     18.34
H(0)         1.384e-025
   H2             6.918e-026  7.079e-026   -25.160   -25.150     0.010     28.61
Na           1.000e-001
   Na+            1.000e-001  7.851e-002    -1.000    -1.105    -0.105     -1.09
   NaOH           7.739e-019  7.919e-019   -18.111   -18.101     0.010     (0)  
O(0)         0.000e+000
   O2             0.000e+000  0.000e+000   -42.093   -42.083     0.010     30.40

------------------------------Saturation indices-------------------------------

	Phase               SI   log IAP   log K(298 K,   1 atm)

	H2(g)           -22.05    -25.15   -3.10  H2
	H2O(g)           -1.50     -0.00    1.50  H2O
	Halite           -3.79     -2.22    1.57  NaCl
	O2(g)           -39.19    -42.08   -2.89  O2


-----------------------------------------
Beginning of batch-reaction calculations.
-----------------------------------------

Reaction step 1.

Using solution 1.	
Using pure phase assemblage 1.	

-------------------------------Phase assemblage--------------------------------

                                                      Moles in assemblage
Phase               SI  log IAP  log K(T, P)   Initial       Final       Delta

Calcite           0.00    -8.48     -8.48   1.000e+000  1.028e+000  2.759e-002
Dolomite          0.00   -17.09    -17.09   1.000e+000  9.862e-001 -1.382e-002
Gypsum            0.00    -4.58     -4.58   1.000e+000  9.682e-001 -3.179e-002

-----------------------------Solution composition------------------------------

	Elements           Molality       Moles

	C                3.849e-005  3.853e-005
	Ca               1.799e-002  1.801e-002
	Cl               9.989e-002  1.000e-001
	Mg               1.380e-002  1.382e-002
	Na               9.989e-002  1.000e-001
	S                3.175e-002  3.179e-002

----------------------------Description of solution----------------------------

                                       pH  =   8.967      Charge balance
                                       pe  =  -3.314      Adjusted to redox equilibrium
       Specific Conductance (uS/cm, 25 oC) = 14016
                          Density (g/cm3)  =   1.00521
                               Volume (L)  =   1.00789
                        Activity of water  =   0.996
                           Ionic strength  =  1.855e-001
                       Mass of water (kg)  =  1.001e+000
                 Total alkalinity (eq/kg)  =  7.698e-005
                       Total CO2 (mol/kg)  =  3.849e-005
                      Temperature (deg C)  =  25.00
                  Electrical balance (eq)  =  2.715e-011
 Percent error, 100*(Cat-|An|)/(Cat+|An|)  =   0.00
                               Iterations  =  19
                                  Total H  = 1.111396e+002
                                  Total O  = 5.569707e+001

----------------------------Distribution of species----------------------------

                                               Log       Log       Log    mole V
   Species          Molality    Activity  Molality  Activity     Gamma   cm3/mol

   OH-            1.310e-005  9.340e-006    -4.883    -5.030    -0.147     -3.53
   H+             1.348e-009  1.079e-009    -8.870    -8.967    -0.097      0.00
   H2O            5.551e+001  9.957e-001     1.744    -0.002     0.000     18.07
C(-4)        5.986e-029
   CH4            5.986e-029  6.248e-029   -28.223   -28.204     0.019     32.22
C(4)         3.849e-005
   HCO3-          2.297e-005  1.724e-005    -4.639    -4.763    -0.125     25.66
   CaCO3          5.332e-006  5.565e-006    -5.273    -5.255     0.019    -14.60
   NaHCO3         3.025e-006  3.156e-006    -5.519    -5.501     0.019     19.41
   CO3-2          2.359e-006  7.494e-007    -5.627    -6.125    -0.498     -2.58
   MgCO3          2.244e-006  2.341e-006    -5.649    -5.631     0.019    -17.09
   CaHCO3+        1.278e-006  9.725e-007    -5.893    -6.012    -0.119      9.87
   MgHCO3+        9.125e-007  6.606e-007    -6.040    -6.180    -0.140      5.71
   NaCO3-         3.249e-007  2.439e-007    -6.488    -6.613    -0.125      0.18
   CO2            4.026e-008  4.201e-008    -7.395    -7.377     0.019     30.26
Ca           1.799e-002
   Ca+2           1.347e-002  4.420e-003    -1.871    -2.355    -0.484    -17.24
   CaSO4          4.511e-003  4.708e-003    -2.346    -2.327     0.019      7.50
   CaCO3          5.332e-006  5.565e-006    -5.273    -5.255     0.019    -14.60
   CaHCO3+        1.278e-006  9.725e-007    -5.893    -6.012    -0.119      9.87
   CaOH+          9.030e-007  6.769e-007    -6.044    -6.169    -0.125     (0)  
   CaHSO4+        4.454e-011  3.339e-011   -10.351   -10.476    -0.125     (0)  
Cl           9.989e-002
   Cl-            9.989e-002  7.203e-002    -1.000    -1.142    -0.142     18.44
H(0)         6.715e-015
   H2             3.358e-015  3.504e-015   -14.474   -14.455     0.019     28.61
Mg           1.380e-002
   Mg+2           9.379e-003  3.274e-003    -2.028    -2.485    -0.457    -20.95
   MgSO4          4.405e-003  4.597e-003    -2.356    -2.338     0.019      5.84
   MgOH+          1.428e-005  1.097e-005    -4.845    -4.960    -0.114     (0)  
   MgCO3          2.244e-006  2.341e-006    -5.649    -5.631     0.019    -17.09
   MgHCO3+        9.125e-007  6.606e-007    -6.040    -6.180    -0.140      5.71
Na           9.989e-002
   Na+            9.697e-002  7.287e-002    -1.013    -1.137    -0.124     -0.98
   NaSO4-         2.914e-003  2.187e-003    -2.536    -2.660    -0.125     20.07
   NaHCO3         3.025e-006  3.156e-006    -5.519    -5.501     0.019     19.41
   NaCO3-         3.249e-007  2.439e-007    -6.488    -6.613    -0.125      0.18
   NaOH           6.522e-017  6.806e-017   -16.186   -16.167     0.019     (0)  
O(0)         0.000e+000
   O2             0.000e+000  0.000e+000   -63.491   -63.473     0.019     30.40
S(-2)        2.489e-023
   HS-            2.472e-023  1.763e-023   -22.607   -22.754    -0.147     20.98
   H2S            1.593e-025  1.663e-025   -24.798   -24.779     0.019     37.16
   S-2            6.452e-027  1.973e-027   -26.190   -26.705    -0.515     (0)  
S(6)         3.175e-002
   SO4-2          1.992e-002  5.989e-003    -1.701    -2.223    -0.522     15.52
   CaSO4          4.511e-003  4.708e-003    -2.346    -2.327     0.019      7.50
   MgSO4          4.405e-003  4.597e-003    -2.356    -2.338     0.019      5.84
   NaSO4-         2.914e-003  2.187e-003    -2.536    -2.660    -0.125     20.07
   HSO4-          8.382e-010  6.283e-010    -9.077    -9.202    -0.125     40.64
   CaHSO4+        4.454e-011  3.339e-011   -10.351   -10.476    -0.125     (0)  

------------------------------Saturation indices-------------------------------

	Phase               SI   log IAP   log K(298 K,   1 atm)

	Anhydrite        -0.30     -4.58   -4.28  CaSO4
	Aragonite        -0.14     -8.48   -8.34  CaCO3
	Calcite           0.00     -8.48   -8.48  CaCO3
	CH4(g)          -25.36    -28.20   -2.84  CH4
	CO2(g)           -5.92     -7.38   -1.46  CO2
	Dolomite          0.00    -17.09  -17.09  CaMg(CO3)2
	Gypsum            0.00     -4.58   -4.58  CaSO4:2H2O
	H2(g)           -11.35    -14.46   -3.10  H2
	H2O(g)           -1.50     -0.00    1.50  H2O
	H2S(g)          -23.73    -31.72   -7.99  H2S
	Halite           -3.85     -2.28    1.57  NaCl
	O2(g)           -60.58    -63.47   -2.89  O2
	Sulfur          -18.36    -13.47    4.88  S


------------------
End of simulation.
------------------

------------------------------------
Reading input data for simulation 4.
------------------------------------

	SELECTED_OUTPUT
	      file donly.sel
	      reset false
	      solution
		totals  Na Mg Ca S C Cl
		equilibrium_phases Calcite Dolomite Gypsum 
	USER_PUNCH
	heading pH
	10 PUNCH -LA("H+")
	END
------------------
End of simulation.
------------------

------------------------------------
Reading input data for simulation 5.
------------------------------------

	ADVECTION
		cells 30
		shifts 10
	        print_frequency 5
	END
------------------------------------
Beginning of advection calculations.
------------------------------------

Beginning of advection time step 1, cumulative pore volumes 0.033333.
Beginning of advection time step 2, cumulative pore volumes 0.066667.
Beginning of advection time step 3, cumulative pore volumes 0.100000.
Beginning of advection time step 4, cumulative pore volumes 0.133333.
Beginning of advection time step 5, cumulative pore volumes 0.166667.

Cell 1.

Using solution 1.	
Using exchange 1.	Exchange assemblage after simulation 5.
Using pure phase assemblage 1.	Pure-phase assemblage after simulation 5.

-------------------------------Phase assemblage--------------------------------

                                                      Moles in assemblage
Phase               SI  log IAP  log K(T, P)   Initial       Final       Delta

Calcite           0.00    -8.48     -8.48   1.134e+000  1.166e+000  3.266e-002
Dolomite          0.00   -17.09    -17.09   9.651e-001  9.568e-001 -8.369e-003
Gypsum            0.00    -4.58     -4.58   8.629e-001  8.280e-001 -3.494e-002

-----------------------------Exchange composition------------------------------

X               1.500e+000 mol

	                               Equiv-    Equivalent      Log 
	Species             Moles      alents      Fraction     Gamma

	CaX2             4.365e-001  8.731e-001  5.821e-001    -0.414
	NaX              2.044e-001  2.044e-001  1.363e-001    -0.107
	MgX2             1.957e-001  3.914e-001  2.609e-001    -0.396
	KX               3.115e-002  3.115e-002  2.077e-002    -0.119
	NH4X             1.559e-052  1.559e-052  1.039e-052    -0.130

-----------------------------Solution composition------------------------------

	Elements           Molality       Moles

	C                3.300e-002  3.305e-002
	Ca               1.294e-002  1.296e-002
	Cl               8.174e-004  8.186e-004
	K                1.273e-003  1.275e-003
	Mg               1.041e-002  1.042e-002
	N                3.579e-006  3.585e-006
	Na               4.220e-002  4.227e-002
	S                3.489e-002  3.494e-002

----------------------------Description of solution----------------------------

                                       pH  =   6.271      Charge balance
                                       pe  =  13.006      Adjusted to redox equilibrium
       Specific Conductance (uS/cm, 25 oC) = 6093
                          Density (g/cm3)  =   1.00288
                               Volume (L)  =   1.00941
                        Activity of water  =   0.998
                           Ionic strength  =  1.048e-001
                       Mass of water (kg)  =  1.002e+000
                 Total alkalinity (eq/kg)  =  1.812e-002
                       Total CO2 (mol/kg)  =  3.300e-002
                      Temperature (deg C)  =  25.00
                  Electrical balance (eq)  =  1.454e-003
 Percent error, 100*(Cat-|An|)/(Cat+|An|)  =   1.07
                               Iterations  =  15
                                  Total H  = 1.111995e+002
                                  Total O  = 5.581468e+001

----------------------------Distribution of species----------------------------

                                               Log       Log       Log    mole V
   Species          Molality    Activity  Molality  Activity     Gamma   cm3/mol

   H+             6.500e-007  5.352e-007    -6.187    -6.271    -0.084      0.00
   OH-            2.490e-008  1.887e-008    -7.604    -7.724    -0.120     -3.72
   H2O            5.551e+001  9.979e-001     1.744    -0.001     0.000     18.07
C(-4)        0.000e+000
   CH4            0.000e+000  0.000e+000  -131.652  -131.641     0.010     32.22
C(4)         3.300e-002
   HCO3-          1.610e-002  1.265e-002    -1.793    -1.898    -0.105     25.26
   CO2            1.489e-002  1.525e-002    -1.827    -1.817     0.010     30.26
   NaHCO3         9.586e-004  9.820e-004    -3.018    -3.008     0.010     19.41
   CaHCO3+        6.083e-004  4.823e-004    -3.216    -3.317    -0.101      9.84
   MgHCO3+        4.278e-004  3.277e-004    -3.369    -3.485    -0.116      5.66
   CaCO3          5.432e-006  5.565e-006    -5.265    -5.255     0.010    -14.60
   CO3-2          2.912e-006  1.108e-006    -5.536    -5.955    -0.420     -3.11
   MgCO3          2.286e-006  2.341e-006    -5.641    -5.631     0.010    -17.09
   NaCO3-         1.948e-007  1.530e-007    -6.710    -6.815    -0.105     -0.12
Ca           1.294e-002
   Ca+2           7.752e-003  2.989e-003    -2.111    -2.525    -0.414    -17.42
   CaSO4          4.575e-003  4.687e-003    -2.340    -2.329     0.010      7.50
   CaHCO3+        6.083e-004  4.823e-004    -3.216    -3.317    -0.101      9.84
   CaCO3          5.432e-006  5.565e-006    -5.265    -5.255     0.010    -14.60
   CaHSO4+        2.118e-008  1.649e-008    -7.674    -7.783    -0.109     (0)  
   CaOH+          1.188e-009  9.249e-010    -8.925    -9.034    -0.109     (0)  
Cl           8.174e-004
   Cl-            8.174e-004  6.238e-004    -3.088    -3.205    -0.117     18.35
H(0)         0.000e+000
   H2             0.000e+000  0.000e+000   -41.715   -41.704     0.010     28.61
K            1.273e-003
   K+             1.201e-003  9.137e-004    -2.920    -3.039    -0.119      9.25
   KSO4-          7.208e-005  5.662e-005    -4.142    -4.247    -0.105     (0)  
Mg           1.041e-002
   Mg+2           5.507e-003  2.214e-003    -2.259    -2.655    -0.396    -21.12
   MgSO4          4.468e-003  4.577e-003    -2.350    -2.339     0.010      5.84
   MgHCO3+        4.278e-004  3.277e-004    -3.369    -3.485    -0.116      5.66
   MgCO3          2.286e-006  2.341e-006    -5.641    -5.631     0.010    -17.09
   MgOH+          1.877e-008  1.499e-008    -7.727    -7.824    -0.098     (0)  
N(-3)        0.000e+000
   NH4+           0.000e+000  0.000e+000   -53.121   -53.251    -0.130     18.18
   NH4SO4-        0.000e+000  0.000e+000   -54.087   -54.196    -0.109     (0)  
   NH3            0.000e+000  0.000e+000   -56.235   -56.224     0.010     24.46
N(0)         8.302e-010
   N2             4.151e-010  4.252e-010    -9.382    -9.371     0.010     29.29
N(3)         3.719e-016
   NO2-           3.719e-016  2.788e-016   -15.430   -15.555    -0.125     25.24
N(5)         3.579e-006
   NO3-           3.579e-006  2.682e-006    -5.446    -5.571    -0.125     29.81
Na           4.220e-002
   Na+            3.950e-002  3.091e-002    -1.403    -1.510    -0.107     -1.08
   NaSO4-         1.739e-003  1.366e-003    -2.760    -2.865    -0.105     19.51
   NaHCO3         9.586e-004  9.820e-004    -3.018    -3.008     0.010     19.41
   NaCO3-         1.948e-007  1.530e-007    -6.710    -6.815    -0.105     -0.12
   NaOH           5.694e-020  5.833e-020   -19.245   -19.234     0.010     (0)  
O(0)         2.075e-009
   O2             1.038e-009  1.063e-009    -8.984    -8.973     0.010     30.40
S(-2)        0.000e+000
   H2S            0.000e+000  0.000e+000  -128.229  -128.219     0.010     37.16
   HS-            0.000e+000  0.000e+000  -128.769  -128.889    -0.120     20.88
   S-2            0.000e+000  0.000e+000  -135.104  -135.536    -0.431     (0)  
S(6)         3.489e-002
   SO4-2          2.403e-002  8.819e-003    -1.619    -2.055    -0.435     15.11
   CaSO4          4.575e-003  4.687e-003    -2.340    -2.329     0.010      7.50
   MgSO4          4.468e-003  4.577e-003    -2.350    -2.339     0.010      5.84
   NaSO4-         1.739e-003  1.366e-003    -2.760    -2.865    -0.105     19.51
   KSO4-          7.208e-005  5.662e-005    -4.142    -4.247    -0.105     (0)  
   HSO4-          5.894e-007  4.589e-007    -6.230    -6.338    -0.109     40.54
   CaHSO4+        2.118e-008  1.649e-008    -7.674    -7.783    -0.109     (0)  
   NH4SO4-        0.000e+000  0.000e+000   -54.087   -54.196    -0.109     (0)  

------------------------------Saturation indices-------------------------------

	Phase               SI   log IAP   log K(298 K,   1 atm)

	Anhydrite        -0.30     -4.58   -4.28  CaSO4
	Aragonite        -0.14     -8.48   -8.34  CaCO3
	Calcite           0.00     -8.48   -8.48  CaCO3
	CH4(g)         -128.80   -131.64   -2.84  CH4
	CO2(g)           -0.36     -1.82   -1.46  CO2
	Dolomite          0.00    -17.09  -17.09  CaMg(CO3)2
	Gypsum            0.00     -4.58   -4.58  CaSO4:2H2O
	H2(g)           -38.60    -41.70   -3.10  H2
	H2O(g)           -1.50     -0.00    1.50  H2O
	H2S(g)         -127.17   -135.16   -7.99  H2S
	Halite           -6.28     -4.71    1.57  NaCl
	N2(g)            -6.20     -9.37   -3.18  N2
	NH3(g)          -58.02    -56.22    1.80  NH3
	O2(g)            -6.08     -8.97   -2.89  O2
	Sulfur          -94.55    -89.66    4.88  S
	Sylvite          -7.14     -6.24    0.90  KCl



Cell 2.

Using solution 2.	Solution after simulation 5.
Using exchange 2.	Exchange assemblage after simulation 5.
Using pure phase assemblage 2.	Pure-phase assemblage after simulation 5.

-------------------------------Phase assemblage--------------------------------

                                                      Moles in assemblage
Phase               SI  log IAP  log K(T, P)   Initial       Final       Delta

Calcite           0.00    -8.48     -8.48   1.031e+000  1.031e+000  1.405e-004
Dolomite          0.00   -17.09    -17.09   9.845e-001  9.844e-001 -8.585e-005
Gypsum            0.00    -4.58     -4.58   9.725e-001  9.723e-001 -2.559e-004

-----------------------------Exchange composition------------------------------

X               1.500e+000 mol

	                               Equiv-    Equivalent      Log 
	Species             Moles      alents      Fraction     Gamma

	CaX2             4.367e-001  8.734e-001  5.823e-001    -0.414
	NaX              2.052e-001  2.052e-001  1.368e-001    -0.107
	MgX2             1.957e-001  3.915e-001  2.610e-001    -0.396
	KX               2.991e-002  2.991e-002  1.994e-002    -0.119
	NH4X             1.559e-052  1.559e-052  1.039e-052    -0.130

-----------------------------Solution composition------------------------------

	Elements           Molality       Moles

	C                3.300e-002  3.305e-002
	Ca               1.294e-002  1.296e-002
	Cl               8.174e-004  8.186e-004
	K                1.222e-003  1.224e-003
	Mg               1.040e-002  1.042e-002
	N                3.579e-006  3.585e-006
	Na               4.235e-002  4.242e-002
	S                3.492e-002  3.498e-002

----------------------------Description of solution----------------------------

                                       pH  =   6.272      Charge balance
                                       pe  =  13.005      Adjusted to redox equilibrium
       Specific Conductance (uS/cm, 25 oC) = 6098
                          Density (g/cm3)  =   1.00289
                               Volume (L)  =   1.00942
                        Activity of water  =   0.998
                           Ionic strength  =  1.049e-001
                       Mass of water (kg)  =  1.002e+000
                 Total alkalinity (eq/kg)  =  1.813e-002
                       Total CO2 (mol/kg)  =  3.300e-002
                      Temperature (deg C)  =  25.00
                  Electrical balance (eq)  =  1.454e-003
 Percent error, 100*(Cat-|An|)/(Cat+|An|)  =   1.07
                               Iterations  =   5
                                  Total H  = 1.111996e+002
                                  Total O  = 5.581490e+001

----------------------------Distribution of species----------------------------

                                               Log       Log       Log    mole V
   Species          Molality    Activity  Molality  Activity     Gamma   cm3/mol

   H+             6.496e-007  5.349e-007    -6.187    -6.272    -0.084      0.00
   OH-            2.492e-008  1.888e-008    -7.604    -7.724    -0.120     -3.72
   H2O            5.551e+001  9.979e-001     1.744    -0.001     0.000     18.07
C(-4)        0.000e+000
   CH4            0.000e+000  0.000e+000  -131.652  -131.641     0.010     32.22
C(4)         3.300e-002
   HCO3-          1.611e-002  1.265e-002    -1.793    -1.898    -0.105     25.26
   CO2            1.488e-002  1.525e-002    -1.827    -1.817     0.010     30.26
   NaHCO3         9.622e-004  9.857e-004    -3.017    -3.006     0.010     19.41
   CaHCO3+        6.080e-004  4.820e-004    -3.216    -3.317    -0.101      9.84
   MgHCO3+        4.276e-004  3.275e-004    -3.369    -3.485    -0.116      5.66
   CaCO3          5.432e-006  5.565e-006    -5.265    -5.255     0.010    -14.60
   CO3-2          2.916e-006  1.109e-006    -5.535    -5.955    -0.420     -3.10
   MgCO3          2.286e-006  2.341e-006    -5.641    -5.631     0.010    -17.09
   NaCO3-         1.957e-007  1.537e-007    -6.708    -6.813    -0.105     -0.12
Ca           1.294e-002
   Ca+2           7.747e-003  2.986e-003    -2.111    -2.525    -0.414    -17.42
   CaSO4          4.575e-003  4.687e-003    -2.340    -2.329     0.010      7.50
   CaHCO3+        6.080e-004  4.820e-004    -3.216    -3.317    -0.101      9.84
   CaCO3          5.432e-006  5.565e-006    -5.265    -5.255     0.010    -14.60
   CaHSO4+        2.117e-008  1.648e-008    -7.674    -7.783    -0.109     (0)  
   CaOH+          1.188e-009  9.246e-010    -8.925    -9.034    -0.109     (0)  
Cl           8.174e-004
   Cl-            8.174e-004  6.238e-004    -3.088    -3.205    -0.117     18.35
H(0)         0.000e+000
   H2             0.000e+000  0.000e+000   -41.715   -41.704     0.010     28.61
K            1.222e-003
   K+             1.153e-003  8.767e-004    -2.938    -3.057    -0.119      9.25
   KSO4-          6.924e-005  5.438e-005    -4.160    -4.265    -0.105     (0)  
Mg           1.040e-002
   Mg+2           5.503e-003  2.212e-003    -2.259    -2.655    -0.396    -21.12
   MgSO4          4.468e-003  4.577e-003    -2.350    -2.339     0.010      5.84
   MgHCO3+        4.276e-004  3.275e-004    -3.369    -3.485    -0.116      5.66
   MgCO3          2.286e-006  2.341e-006    -5.641    -5.631     0.010    -17.09
   MgOH+          1.876e-008  1.498e-008    -7.727    -7.824    -0.098     (0)  
N(-3)        0.000e+000
   NH4+           0.000e+000  0.000e+000   -53.121   -53.252    -0.130     18.18
   NH4SO4-        0.000e+000  0.000e+000   -54.087   -54.196    -0.109     (0)  
   NH3            0.000e+000  0.000e+000   -56.235   -56.224     0.010     24.46
N(0)         8.298e-010
   N2             4.149e-010  4.250e-010    -9.382    -9.372     0.010     29.29
N(3)         3.720e-016
   NO2-           3.720e-016  2.788e-016   -15.429   -15.555    -0.125     25.24
N(5)         3.579e-006
   NO3-           3.579e-006  2.682e-006    -5.446    -5.572    -0.125     29.81
Na           4.235e-002
   Na+            3.964e-002  3.101e-002    -1.402    -1.508    -0.107     -1.08
   NaSO4-         1.747e-003  1.372e-003    -2.758    -2.863    -0.105     19.51
   NaHCO3         9.622e-004  9.857e-004    -3.017    -3.006     0.010     19.41
   NaCO3-         1.957e-007  1.537e-007    -6.708    -6.813    -0.105     -0.12
   NaOH           5.717e-020  5.857e-020   -19.243   -19.232     0.010     (0)  
O(0)         2.075e-009
   O2             1.037e-009  1.063e-009    -8.984    -8.974     0.010     30.40
S(-2)        0.000e+000
   H2S            0.000e+000  0.000e+000  -128.229  -128.219     0.010     37.16
   HS-            0.000e+000  0.000e+000  -128.768  -128.889    -0.120     20.88
   S-2            0.000e+000  0.000e+000  -135.104  -135.535    -0.431     (0)  
S(6)         3.492e-002
   SO4-2          2.406e-002  8.827e-003    -1.619    -2.054    -0.436     15.12
   CaSO4          4.575e-003  4.687e-003    -2.340    -2.329     0.010      7.50
   MgSO4          4.468e-003  4.577e-003    -2.350    -2.339     0.010      5.84
   NaSO4-         1.747e-003  1.372e-003    -2.758    -2.863    -0.105     19.51
   KSO4-          6.924e-005  5.438e-005    -4.160    -4.265    -0.105     (0)  
   HSO4-          5.896e-007  4.590e-007    -6.229    -6.338    -0.109     40.54
   CaHSO4+        2.117e-008  1.648e-008    -7.674    -7.783    -0.109     (0)  
   NH4SO4-        0.000e+000  0.000e+000   -54.087   -54.196    -0.109     (0)  

------------------------------Saturation indices-------------------------------

	Phase               SI   log IAP   log K(298 K,   1 atm)

	Anhydrite        -0.30     -4.58   -4.28  CaSO4
	Aragonite        -0.14     -8.48   -8.34  CaCO3
	Calcite           0.00     -8.48   -8.48  CaCO3
	CH4(g)         -128.80   -131.64   -2.84  CH4
	CO2(g)           -0.36     -1.82   -1.46  CO2
	Dolomite          0.00    -17.09  -17.09  CaMg(CO3)2
	Gypsum            0.00     -4.58   -4.58  CaSO4:2H2O
	H2(g)           -38.60    -41.70   -3.10  H2
	H2O(g)           -1.50     -0.00    1.50  H2O
	H2S(g)         -127.17   -135.16   -7.99  H2S
	Halite           -6.28     -4.71    1.57  NaCl
	N2(g)            -6.20     -9.37   -3.18  N2
	NH3(g)          -58.02    -56.22    1.80  NH3
	O2(g)            -6.08     -8.97   -2.89  O2
	Sulfur          -94.55    -89.66    4.88  S
	Sylvite          -7.16     -6.26    0.90  KCl



Cell 3.

Using solution 3.	Solution after simulation 5.
Using exchange 3.	Exchange assemblage after simulation 5.
Using pure phase assemblage 3.	Pure-phase assemblage after simulation 5.

-------------------------------Phase assemblage--------------------------------

                                                      Moles in assemblage
Phase               SI  log IAP  log K(T, P)   Initial       Final       Delta

Calcite           0.00    -8.48     -8.48   1.029e+000  1.029e+000  2.349e-004
Dolomite          0.00   -17.09    -17.09   9.854e-001  9.852e-001 -1.428e-004
Gypsum            0.00    -4.58     -4.58   9.751e-001  9.746e-001 -4.273e-004

-----------------------------Exchange composition------------------------------

X               1.500e+000 mol

	                               Equiv-    Equivalent      Log 
	Species             Moles      alents      Fraction     Gamma

	CaX2             4.345e-001  8.689e-001  5.793e-001    -0.415
	NaX              2.121e-001  2.121e-001  1.414e-001    -0.107
	MgX2             1.947e-001  3.893e-001  2.596e-001    -0.397
	KX               2.967e-002  2.967e-002  1.978e-002    -0.119
	NH4X             1.554e-052  1.554e-052  1.036e-052    -0.131

-----------------------------Solution composition------------------------------

	Elements           Molality       Moles

	C                3.306e-002  3.311e-002
	Ca               1.286e-002  1.288e-002
	Cl               8.174e-004  8.186e-004
	K                1.210e-003  1.212e-003
	Mg               1.034e-002  1.036e-002
	N                3.579e-006  3.585e-006
	Na               4.370e-002  4.377e-002
	S                3.540e-002  3.546e-002

----------------------------Description of solution----------------------------

                                       pH  =   6.275      Charge balance
                                       pe  =  13.001      Adjusted to redox equilibrium
       Specific Conductance (uS/cm, 25 oC) = 6183
                          Density (g/cm3)  =   1.00295
                               Volume (L)  =   1.00948
                        Activity of water  =   0.998
                           Ionic strength  =  1.062e-001
                       Mass of water (kg)  =  1.002e+000
                 Total alkalinity (eq/kg)  =  1.824e-002
                       Total CO2 (mol/kg)  =  3.306e-002
                      Temperature (deg C)  =  25.00
                  Electrical balance (eq)  =  1.454e-003
 Percent error, 100*(Cat-|An|)/(Cat+|An|)  =   1.06
                               Iterations  =   5
                                  Total H  = 1.112015e+002
                                  Total O  = 5.581796e+001

----------------------------Distribution of species----------------------------

                                               Log       Log       Log    mole V
   Species          Molality    Activity  Molality  Activity     Gamma   cm3/mol

   H+             6.447e-007  5.306e-007    -6.191    -6.275    -0.085      0.00
   OH-            2.515e-008  1.904e-008    -7.600    -7.720    -0.121     -3.72
   H2O            5.551e+001  9.979e-001     1.744    -0.001     0.000     18.07
C(-4)        0.000e+000
   CH4            0.000e+000  0.000e+000  -131.649  -131.638     0.011     32.22
C(4)         3.306e-002
   HCO3-          1.620e-002  1.271e-002    -1.791    -1.896    -0.105     25.26
   CO2            1.483e-002  1.519e-002    -1.829    -1.818     0.011     30.26
   NaHCO3         9.956e-004  1.020e-003    -3.002    -2.991     0.011     19.41
   CaHCO3+        6.036e-004  4.781e-004    -3.219    -3.320    -0.101      9.84
   MgHCO3+        4.246e-004  3.248e-004    -3.372    -3.488    -0.116      5.66
   CaCO3          5.430e-006  5.565e-006    -5.265    -5.255     0.011    -14.60
   CO3-2          2.964e-006  1.123e-006    -5.528    -5.949    -0.421     -3.10
   MgCO3          2.285e-006  2.341e-006    -5.641    -5.631     0.011    -17.09
   NaCO3-         2.044e-007  1.604e-007    -6.690    -6.795    -0.105     -0.12
Ca           1.286e-002
   Ca+2           7.675e-003  2.949e-003    -2.115    -2.530    -0.415    -17.42
   CaSO4          4.574e-003  4.687e-003    -2.340    -2.329     0.011      7.50
   CaHCO3+        6.036e-004  4.781e-004    -3.219    -3.320    -0.101      9.84
   CaCO3          5.430e-006  5.565e-006    -5.265    -5.255     0.011    -14.60
   CaHSO4+        2.102e-008  1.635e-008    -7.677    -7.787    -0.109     (0)  
   CaOH+          1.183e-009  9.204e-010    -8.927    -9.036    -0.109     (0)  
Cl           8.174e-004
   Cl-            8.174e-004  6.231e-004    -3.088    -3.205    -0.118     18.35
H(0)         0.000e+000
   H2             0.000e+000  0.000e+000   -41.714   -41.703     0.011     28.61
K            1.210e-003
   K+             1.141e-003  8.670e-004    -2.943    -3.062    -0.119      9.25
   KSO4-          6.940e-005  5.446e-005    -4.159    -4.264    -0.105     (0)  
Mg           1.034e-002
   Mg+2           5.451e-003  2.184e-003    -2.264    -2.661    -0.397    -21.12
   MgSO4          4.466e-003  4.577e-003    -2.350    -2.339     0.011      5.84
   MgHCO3+        4.246e-004  3.248e-004    -3.372    -3.488    -0.116      5.66
   MgCO3          2.285e-006  2.341e-006    -5.641    -5.631     0.011    -17.09
   MgOH+          1.869e-008  1.491e-008    -7.728    -7.826    -0.098     (0)  
N(-3)        0.000e+000
   NH4+           0.000e+000  0.000e+000   -53.124   -53.255    -0.131     18.18
   NH4SO4-        0.000e+000  0.000e+000   -54.084   -54.193    -0.109     (0)  
   NH3            0.000e+000  0.000e+000   -56.234   -56.224     0.011     24.46
N(0)         8.251e-010
   N2             4.126e-010  4.228e-010    -9.385    -9.374     0.011     29.29
N(3)         3.730e-016
   NO2-           3.730e-016  2.792e-016   -15.428   -15.554    -0.126     25.24
N(5)         3.579e-006
   NO3-           3.579e-006  2.679e-006    -5.446    -5.572    -0.126     29.81
Na           4.370e-002
   Na+            4.088e-002  3.196e-002    -1.388    -1.495    -0.107     -1.08
   NaSO4-         1.825e-003  1.432e-003    -2.739    -2.844    -0.105     19.52
   NaHCO3         9.956e-004  1.020e-003    -3.002    -2.991     0.011     19.41
   NaCO3-         2.044e-007  1.604e-007    -6.690    -6.795    -0.105     -0.12
   NaOH           5.937e-020  6.084e-020   -19.226   -19.216     0.011     (0)  
O(0)         2.063e-009
   O2             1.031e-009  1.057e-009    -8.987    -8.976     0.011     30.40
S(-2)        0.000e+000
   H2S            0.000e+000  0.000e+000  -128.226  -128.216     0.011     37.16
   HS-            0.000e+000  0.000e+000  -128.761  -128.882    -0.121     20.88
   S-2            0.000e+000  0.000e+000  -135.092  -135.525    -0.433     (0)  
S(6)         3.540e-002
   SO4-2          2.447e-002  8.939e-003    -1.611    -2.049    -0.437     15.12
   CaSO4          4.574e-003  4.687e-003    -2.340    -2.329     0.011      7.50
   MgSO4          4.466e-003  4.577e-003    -2.350    -2.339     0.011      5.84
   NaSO4-         1.825e-003  1.432e-003    -2.739    -2.844    -0.105     19.52
   KSO4-          6.940e-005  5.446e-005    -4.159    -4.264    -0.105     (0)  
   HSO4-          5.928e-007  4.611e-007    -6.227    -6.336    -0.109     40.55
   CaHSO4+        2.102e-008  1.635e-008    -7.677    -7.787    -0.109     (0)  
   NH4SO4-        0.000e+000  0.000e+000   -54.084   -54.193    -0.109     (0)  

------------------------------Saturation indices-------------------------------

	Phase               SI   log IAP   log K(298 K,   1 atm)

	Anhydrite        -0.30     -4.58   -4.28  CaSO4
	Aragonite        -0.14     -8.48   -8.34  CaCO3
	Calcite           0.00     -8.48   -8.48  CaCO3
	CH4(g)         -128.80   -131.64   -2.84  CH4
	CO2(g)           -0.36     -1.82   -1.46  CO2
	Dolomite          0.00    -17.09  -17.09  CaMg(CO3)2
	Gypsum            0.00     -4.58   -4.58  CaSO4:2H2O
	H2(g)           -38.60    -41.70   -3.10  H2
	H2O(g)           -1.50     -0.00    1.50  H2O
	H2S(g)         -127.16   -135.16   -7.99  H2S
	Halite           -6.27     -4.70    1.57  NaCl
	N2(g)            -6.20     -9.37   -3.18  N2
	NH3(g)          -58.02    -56.22    1.80  NH3
	O2(g)            -6.08     -8.98   -2.89  O2
	Sulfur          -94.54    -89.66    4.88  S
	Sylvite          -7.17     -6.27    0.90  KCl



Cell 4.

Using solution 4.	Solution after simulation 5.
Using exchange 4.	Exchange assemblage after simulation 5.
Using pure phase assemblage 4.	Pure-phase assemblage after simulation 5.

-------------------------------Phase assemblage--------------------------------

                                                      Moles in assemblage
Phase               SI  log IAP  log K(T, P)   Initial       Final       Delta

Calcite           0.00    -8.48     -8.48   1.029e+000  1.029e+000  5.681e-005
Dolomite          0.00   -17.09    -17.09   9.856e-001  9.855e-001 -3.446e-005
Gypsum           -0.00    -4.58     -4.58   9.757e-001  9.756e-001 -1.031e-004

-----------------------------Exchange composition------------------------------

X               1.500e+000 mol

	                               Equiv-    Equivalent      Log 
	Species             Moles      alents      Fraction     Gamma

	CaX2             4.336e-001  8.671e-001  5.781e-001    -0.416
	NaX              2.147e-001  2.147e-001  1.432e-001    -0.107
	MgX2             1.942e-001  3.885e-001  2.590e-001    -0.398
	KX               2.965e-002  2.965e-002  1.977e-002    -0.120
	NH4X             1.552e-052  1.552e-052  1.035e-052    -0.131

-----------------------------Solution composition------------------------------

	Elements           Molality       Moles

	C                3.308e-002  3.313e-002
	Ca               1.283e-002  1.285e-002
	Cl               8.174e-004  8.186e-004
	K                1.209e-003  1.211e-003
	Mg               1.032e-002  1.034e-002
	N                3.579e-006  3.585e-006
	Na               4.423e-002  4.429e-002
	S                3.559e-002  3.564e-002

----------------------------Description of solution----------------------------

                                       pH  =   6.277      Charge balance
                                       pe  =  13.000      Adjusted to redox equilibrium
       Specific Conductance (uS/cm, 25 oC) = 6216
                          Density (g/cm3)  =   1.00298
                               Volume (L)  =   1.00950
                        Activity of water  =   0.998
                           Ionic strength  =  1.067e-001
                       Mass of water (kg)  =  1.002e+000
                 Total alkalinity (eq/kg)  =  1.829e-002
                       Total CO2 (mol/kg)  =  3.308e-002
                      Temperature (deg C)  =  25.00
                  Electrical balance (eq)  =  1.454e-003
 Percent error, 100*(Cat-|An|)/(Cat+|An|)  =   1.05
                               Iterations  =   5
                                  Total H  = 1.112023e+002
                                  Total O  = 5.581915e+001

----------------------------Distribution of species----------------------------

                                               Log       Log       Log    mole V
   Species          Molality    Activity  Molality  Activity     Gamma   cm3/mol

   H+             6.429e-007  5.289e-007    -6.192    -6.277    -0.085      0.00
   OH-            2.524e-008  1.910e-008    -7.598    -7.719    -0.121     -3.71
   H2O            5.551e+001  9.979e-001     1.744    -0.001     0.000     18.07
C(-4)        0.000e+000
   CH4            0.000e+000  0.000e+000  -131.647  -131.637     0.011     32.22
C(4)         3.308e-002
   HCO3-          1.623e-002  1.273e-002    -1.790    -1.895    -0.105     25.27
   CO2            1.480e-002  1.517e-002    -1.830    -1.819     0.011     30.26
   NaHCO3         1.009e-003  1.034e-003    -2.996    -2.986     0.011     19.41
   CaHCO3+        6.019e-004  4.766e-004    -3.220    -3.322    -0.101      9.84
   MgHCO3+        4.235e-004  3.238e-004    -3.373    -3.490    -0.117      5.66
   CaCO3          5.430e-006  5.565e-006    -5.265    -5.255     0.011    -14.60
   CO3-2          2.982e-006  1.129e-006    -5.525    -5.947    -0.422     -3.09
   MgCO3          2.285e-006  2.341e-006    -5.641    -5.631     0.011    -17.09
   NaCO3-         2.078e-007  1.630e-007    -6.682    -6.788    -0.105     -0.12
Ca           1.283e-002
   Ca+2           7.648e-003  2.934e-003    -2.116    -2.533    -0.416    -17.41
   CaSO4          4.574e-003  4.687e-003    -2.340    -2.329     0.011      7.50
   CaHCO3+        6.019e-004  4.766e-004    -3.220    -3.322    -0.101      9.84
   CaCO3          5.430e-006  5.565e-006    -5.265    -5.255     0.011    -14.60
   CaHSO4+        2.096e-008  1.630e-008    -7.679    -7.788    -0.109     (0)  
   CaOH+          1.182e-009  9.188e-010    -8.928    -9.037    -0.109     (0)  
Cl           8.174e-004
   Cl-            8.174e-004  6.228e-004    -3.088    -3.206    -0.118     18.35
H(0)         0.000e+000
   H2             0.000e+000  0.000e+000   -41.713   -41.702     0.011     28.61
K            1.209e-003
   K+             1.139e-003  8.654e-004    -2.943    -3.063    -0.120      9.25
   KSO4-          6.964e-005  5.462e-005    -4.157    -4.263    -0.105     (0)  
Mg           1.032e-002
   Mg+2           5.431e-003  2.173e-003    -2.265    -2.663    -0.398    -21.12
   MgSO4          4.466e-003  4.577e-003    -2.350    -2.339     0.011      5.84
   MgHCO3+        4.235e-004  3.238e-004    -3.373    -3.490    -0.117      5.66
   MgCO3          2.285e-006  2.341e-006    -5.641    -5.631     0.011    -17.09
   MgOH+          1.866e-008  1.489e-008    -7.729    -7.827    -0.098     (0)  
N(-3)        0.000e+000
   NH4+           0.000e+000  0.000e+000   -53.124   -53.256    -0.131     18.18
   NH4SO4-        0.000e+000  0.000e+000   -54.083   -54.192    -0.109     (0)  
   NH3            0.000e+000  0.000e+000   -56.234   -56.223     0.011     24.46
N(0)         8.233e-010
   N2             4.117e-010  4.219e-010    -9.385    -9.375     0.011     29.29
N(3)         3.734e-016
   NO2-           3.734e-016  2.793e-016   -15.428   -15.554    -0.126     25.25
N(5)         3.579e-006
   NO3-           3.579e-006  2.677e-006    -5.446    -5.572    -0.126     29.82
Na           4.423e-002
   Na+            4.136e-002  3.232e-002    -1.383    -1.491    -0.107     -1.08
   NaSO4-         1.855e-003  1.455e-003    -2.732    -2.837    -0.105     19.53
   NaHCO3         1.009e-003  1.034e-003    -2.996    -2.986     0.011     19.41
   NaCO3-         2.078e-007  1.630e-007    -6.682    -6.788    -0.105     -0.12
   NaOH           6.022e-020  6.172e-020   -19.220   -19.210     0.011     (0)  
O(0)         2.058e-009
   O2             1.029e-009  1.055e-009    -8.988    -8.977     0.011     30.40
S(-2)        0.000e+000
   H2S            0.000e+000  0.000e+000  -128.225  -128.214     0.011     37.16
   HS-            0.000e+000  0.000e+000  -128.758  -128.879    -0.121     20.88
   S-2            0.000e+000  0.000e+000  -135.087  -135.521    -0.434     (0)  
S(6)         3.559e-002
   SO4-2          2.462e-002  8.983e-003    -1.609    -2.047    -0.438     15.13
   CaSO4          4.574e-003  4.687e-003    -2.340    -2.329     0.011      7.50
   MgSO4          4.466e-003  4.577e-003    -2.350    -2.339     0.011      5.84
   NaSO4-         1.855e-003  1.455e-003    -2.732    -2.837    -0.105     19.53
   KSO4-          6.964e-005  5.462e-005    -4.157    -4.263    -0.105     (0)  
   HSO4-          5.941e-007  4.619e-007    -6.226    -6.335    -0.109     40.55
   CaHSO4+        2.096e-008  1.630e-008    -7.679    -7.788    -0.109     (0)  
   NH4SO4-        0.000e+000  0.000e+000   -54.083   -54.192    -0.109     (0)  

------------------------------Saturation indices-------------------------------

	Phase               SI   log IAP   log K(298 K,   1 atm)

	Anhydrite        -0.30     -4.58   -4.28  CaSO4
	Aragonite        -0.14     -8.48   -8.34  CaCO3
	Calcite           0.00     -8.48   -8.48  CaCO3
	CH4(g)         -128.79   -131.64   -2.84  CH4
	CO2(g)           -0.36     -1.82   -1.46  CO2
	Dolomite          0.00    -17.09  -17.09  CaMg(CO3)2
	Gypsum           -0.00     -4.58   -4.58  CaSO4:2H2O
	H2(g)           -38.60    -41.70   -3.10  H2
	H2O(g)           -1.50     -0.00    1.50  H2O
	H2S(g)         -127.16   -135.16   -7.99  H2S
	Halite           -6.27     -4.70    1.57  NaCl
	N2(g)            -6.20     -9.37   -3.18  N2
	NH3(g)          -58.02    -56.22    1.80  NH3
	O2(g)            -6.08     -8.98   -2.89  O2
	Sulfur          -94.54    -89.66    4.88  S
	Sylvite          -7.17     -6.27    0.90  KCl



Cell 5.

Using solution 5.	Solution after simulation 5.
Using exchange 5.	Exchange assemblage after simulation 5.
Using pure phase assemblage 5.	Pure-phase assemblage after simulation 5.

-------------------------------Phase assemblage--------------------------------

                                                      Moles in assemblage
Phase               SI  log IAP  log K(T, P)   Initial       Final       Delta

Calcite           0.00    -8.48     -8.48   1.024e+000  1.029e+000  4.625e-003
Dolomite          0.00   -17.09    -17.09   9.879e-001  9.856e-001 -2.313e-003
Gypsum            0.00    -4.58     -4.58   9.757e-001  9.757e-001 -7.397e-006

-----------------------------Exchange composition------------------------------

X               1.500e+000 mol

	                               Equiv-    Equivalent      Log 
	Species             Moles      alents      Fraction     Gamma

	CaX2             4.334e-001  8.669e-001  5.779e-001    -0.416
	NaX              2.151e-001  2.151e-001  1.434e-001    -0.107
	MgX2             1.942e-001  3.884e-001  2.589e-001    -0.398
	KX               2.965e-002  2.965e-002  1.977e-002    -0.120
	NH4X             1.552e-052  1.552e-052  1.034e-052    -0.131

-----------------------------Solution composition------------------------------

	Elements           Molality       Moles

	C                3.308e-002  3.314e-002
	Ca               1.282e-002  1.284e-002
	Cl               8.174e-004  8.186e-004
	K                1.209e-003  1.211e-003
	Mg               1.032e-002  1.034e-002
	N                3.579e-006  3.585e-006
	Na               4.430e-002  4.437e-002
	S                3.562e-002  3.567e-002

----------------------------Description of solution----------------------------

                                       pH  =   6.277      Charge balance
                                       pe  =  12.999      Adjusted to redox equilibrium
       Specific Conductance (uS/cm, 25 oC) = 6221
                          Density (g/cm3)  =   1.00298
                               Volume (L)  =   1.00950
                        Activity of water  =   0.998
                           Ionic strength  =  1.067e-001
                       Mass of water (kg)  =  1.002e+000
                 Total alkalinity (eq/kg)  =  1.829e-002
                       Total CO2 (mol/kg)  =  3.308e-002
                      Temperature (deg C)  =  25.00
                  Electrical balance (eq)  =  1.454e-003
 Percent error, 100*(Cat-|An|)/(Cat+|An|)  =   1.05
                               Iterations  =   6
                                  Total H  = 1.112024e+002
                                  Total O  = 5.581933e+001

----------------------------Distribution of species----------------------------

                                               Log       Log       Log    mole V
   Species          Molality    Activity  Molality  Activity     Gamma   cm3/mol

   H+             6.426e-007  5.287e-007    -6.192    -6.277    -0.085      0.00
   OH-            2.525e-008  1.911e-008    -7.598    -7.719    -0.121     -3.71
   H2O            5.551e+001  9.979e-001     1.744    -0.001     0.000     18.07
C(-4)        0.000e+000
   CH4            0.000e+000  0.000e+000  -131.647  -131.637     0.011     32.22
C(4)         3.308e-002
   HCO3-          1.624e-002  1.274e-002    -1.789    -1.895    -0.105     25.27
   CO2            1.480e-002  1.517e-002    -1.830    -1.819     0.011     30.26
   NaHCO3         1.011e-003  1.036e-003    -2.995    -2.985     0.011     19.41
   CaHCO3+        6.017e-004  4.764e-004    -3.221    -3.322    -0.101      9.84
   MgHCO3+        4.233e-004  3.236e-004    -3.373    -3.490    -0.117      5.66
   CaCO3          5.430e-006  5.565e-006    -5.265    -5.255     0.011    -14.60
   CO3-2          2.985e-006  1.130e-006    -5.525    -5.947    -0.422     -3.09
   MgCO3          2.285e-006  2.341e-006    -5.641    -5.631     0.011    -17.09
   NaCO3-         2.083e-007  1.634e-007    -6.681    -6.787    -0.105     -0.12
Ca           1.282e-002
   Ca+2           7.644e-003  2.932e-003    -2.117    -2.533    -0.416    -17.41
   CaSO4          4.574e-003  4.687e-003    -2.340    -2.329     0.011      7.50
   CaHCO3+        6.017e-004  4.764e-004    -3.221    -3.322    -0.101      9.84
   CaCO3          5.430e-006  5.565e-006    -5.265    -5.255     0.011    -14.60
   CaHSO4+        2.095e-008  1.629e-008    -7.679    -7.788    -0.109     (0)  
   CaOH+          1.181e-009  9.185e-010    -8.928    -9.037    -0.109     (0)  
Cl           8.174e-004
   Cl-            8.174e-004  6.228e-004    -3.088    -3.206    -0.118     18.35
H(0)         0.000e+000
   H2             0.000e+000  0.000e+000   -41.713   -41.702     0.011     28.61
K            1.209e-003
   K+             1.139e-003  8.652e-004    -2.943    -3.063    -0.120      9.25
   KSO4-          6.968e-005  5.465e-005    -4.157    -4.262    -0.105     (0)  
Mg           1.032e-002
   Mg+2           5.428e-003  2.172e-003    -2.265    -2.663    -0.398    -21.12
   MgSO4          4.466e-003  4.577e-003    -2.350    -2.339     0.011      5.84
   MgHCO3+        4.233e-004  3.236e-004    -3.373    -3.490    -0.117      5.66
   MgCO3          2.285e-006  2.341e-006    -5.641    -5.631     0.011    -17.09
   MgOH+          1.866e-008  1.489e-008    -7.729    -7.827    -0.098     (0)  
N(-3)        0.000e+000
   NH4+           0.000e+000  0.000e+000   -53.125   -53.256    -0.131     18.18
   NH4SO4-        0.000e+000  0.000e+000   -54.083   -54.192    -0.109     (0)  
   NH3            0.000e+000  0.000e+000   -56.234   -56.223     0.011     24.46
N(0)         8.230e-010
   N2             4.115e-010  4.218e-010    -9.386    -9.375     0.011     29.29
N(3)         3.734e-016
   NO2-           3.734e-016  2.794e-016   -15.428   -15.554    -0.126     25.25
N(5)         3.579e-006
   NO3-           3.579e-006  2.677e-006    -5.446    -5.572    -0.126     29.82
Na           4.430e-002
   Na+            4.143e-002  3.237e-002    -1.383    -1.490    -0.107     -1.08
   NaSO4-         1.860e-003  1.459e-003    -2.731    -2.836    -0.105     19.53
   NaHCO3         1.011e-003  1.036e-003    -2.995    -2.985     0.011     19.41
   NaCO3-         2.083e-007  1.634e-007    -6.681    -6.787    -0.105     -0.12
   NaOH           6.035e-020  6.185e-020   -19.219   -19.209     0.011     (0)  
O(0)         2.058e-009
   O2             1.029e-009  1.054e-009    -8.988    -8.977     0.011     30.40
S(-2)        0.000e+000
   H2S            0.000e+000  0.000e+000  -128.225  -128.214     0.011     37.16
   HS-            0.000e+000  0.000e+000  -128.758  -128.879    -0.121     20.88
   S-2            0.000e+000  0.000e+000  -135.087  -135.520    -0.434     (0)  
S(6)         3.562e-002
   SO4-2          2.465e-002  8.990e-003    -1.608    -2.046    -0.438     15.13
   CaSO4          4.574e-003  4.687e-003    -2.340    -2.329     0.011      7.50
   MgSO4          4.466e-003  4.577e-003    -2.350    -2.339     0.011      5.84
   NaSO4-         1.860e-003  1.459e-003    -2.731    -2.836    -0.105     19.53
   KSO4-          6.968e-005  5.465e-005    -4.157    -4.262    -0.105     (0)  
   HSO4-          5.942e-007  4.621e-007    -6.226    -6.335    -0.109     40.55
   CaHSO4+        2.095e-008  1.629e-008    -7.679    -7.788    -0.109     (0)  
   NH4SO4-        0.000e+000  0.000e+000   -54.083   -54.192    -0.109     (0)  

------------------------------Saturation indices-------------------------------

	Phase               SI   log IAP   log K(298 K,   1 atm)

	Anhydrite        -0.30     -4.58   -4.28  CaSO4
	Aragonite        -0.14     -8.48   -8.34  CaCO3
	Calcite           0.00     -8.48   -8.48  CaCO3
	CH4(g)         -128.79   -131.64   -2.84  CH4
	CO2(g)           -0.36     -1.82   -1.46  CO2
	Dolomite          0.00    -17.09  -17.09  CaMg(CO3)2
	Gypsum            0.00     -4.58   -4.58  CaSO4:2H2O
	H2(g)           -38.60    -41.70   -3.10  H2
	H2O(g)           -1.50     -0.00    1.50  H2O
	H2S(g)         -127.16   -135.16   -7.99  H2S
	Halite           -6.27     -4.70    1.57  NaCl
	N2(g)            -6.20     -9.37   -3.18  N2
	NH3(g)          -58.02    -56.22    1.80  NH3
	O2(g)            -6.08     -8.98   -2.89  O2
	Sulfur          -94.54    -89.66    4.88  S
	Sylvite          -7.17     -6.27    0.90  KCl



Cell 6.

Using solution 6.	Solution after simulation 5.
Using exchange 6.	Exchange assemblage after simulation 5.
Using pure phase assemblage 6.	Pure-phase assemblage after simulation 5.

-------------------------------Phase assemblage--------------------------------

                                                      Moles in assemblage
Phase               SI  log IAP  log K(T, P)   Initial       Final       Delta

Calcite           0.00    -8.48     -8.48   1.030e+000  1.030e+000  1.551e-007
Dolomite          0.01   -17.08    -17.09   9.856e-001  9.856e-001  0.000e+000
Gypsum            0.00    -4.58     -4.58   9.736e-001  9.744e-001  7.680e-004

-----------------------------Exchange composition------------------------------

X               1.500e+000 mol

	                               Equiv-    Equivalent      Log 
	Species             Moles      alents      Fraction     Gamma

	CaX2             4.404e-001  8.807e-001  5.871e-001    -0.476
	MgX2             1.974e-001  3.948e-001  2.632e-001    -0.451
	NaX              1.941e-001  1.941e-001  1.294e-001    -0.122
	KX               3.033e-002  3.033e-002  2.022e-002    -0.141

-----------------------------Solution composition------------------------------

	Elements           Molality       Moles

	C                3.536e-005  3.539e-005
	Ca               2.399e-002  2.402e-002
	Cl               9.992e-002  1.000e-001
	K                1.896e-003  1.898e-003
	Mg               1.834e-002  1.836e-002
	Na               6.040e-002  6.045e-002
	S                2.350e-002  2.351e-002

----------------------------Description of solution----------------------------

                                       pH  =   8.831      Charge balance
                                       pe  =   8.968      Adjusted to redox equilibrium
       Specific Conductance (uS/cm, 25 oC) = 12635
                          Density (g/cm3)  =   1.00422
                               Volume (L)  =   1.00678
                        Activity of water  =   0.996
                           Ionic strength  =  1.742e-001
                       Mass of water (kg)  =  1.001e+000
                 Total alkalinity (eq/kg)  =  7.072e-005
                       Total CO2 (mol/kg)  =  3.536e-005
                      Temperature (deg C)  =  25.00
                  Electrical balance (eq)  =  9.445e-012
 Percent error, 100*(Cat-|An|)/(Cat+|An|)  =   0.00
                               Iterations  =   5
                                  Total H  = 1.111065e+002
                                  Total O  = 5.564741e+001

----------------------------Distribution of species----------------------------

                                               Log       Log       Log    mole V
   Species          Molality    Activity  Molality  Activity     Gamma   cm3/mol

   OH-            9.525e-006  6.839e-006    -5.021    -5.165    -0.144     -3.55
   H+             1.836e-009  1.474e-009    -8.736    -8.831    -0.095      0.00
   H2O            5.551e+001  9.963e-001     1.744    -0.002     0.000     18.07
C(-4)        0.000e+000
   CH4            0.000e+000  0.000e+000  -125.290  -125.272     0.017     32.22
C(4)         3.536e-005
   HCO3-          2.123e-005  1.602e-005    -4.673    -4.795    -0.122     25.61
   CaCO3          5.346e-006  5.565e-006    -5.272    -5.255     0.017    -14.60
   MgCO3          2.290e-006  2.384e-006    -5.640    -5.623     0.017    -17.09
   CaHCO3+        1.739e-006  1.329e-006    -5.760    -5.877    -0.117      9.87
   NaHCO3         1.727e-006  1.798e-006    -5.763    -5.745     0.017     19.41
   CO3-2          1.572e-006  5.096e-007    -5.803    -6.293    -0.489     -2.64
   MgHCO3+        1.261e-006  9.190e-007    -5.899    -6.037    -0.137      5.70
   NaCO3-         1.348e-007  1.017e-007    -6.870    -6.993    -0.122      0.14
   CO2            5.122e-008  5.331e-008    -7.291    -7.273     0.017     30.26
Ca           2.399e-002
   Ca+2           1.947e-002  6.500e-003    -1.711    -2.187    -0.476    -17.26
   CaSO4          4.517e-003  4.702e-003    -2.345    -2.328     0.017      7.50
   CaCO3          5.346e-006  5.565e-006    -5.272    -5.255     0.017    -14.60
   CaHCO3+        1.739e-006  1.329e-006    -5.760    -5.877    -0.117      9.87
   CaOH+          9.688e-007  7.289e-007    -6.014    -6.137    -0.124     (0)  
   CaHSO4+        6.057e-011  4.557e-011   -10.218   -10.341    -0.124     (0)  
Cl           9.992e-002
   Cl-            9.992e-002  7.252e-002    -1.000    -1.140    -0.139     18.43
H(0)         3.431e-039
   H2             1.715e-039  1.786e-039   -38.766   -38.748     0.017     28.61
K            1.896e-003
   K+             1.845e-003  1.333e-003    -2.734    -2.875    -0.141      9.32
   KSO4-          5.050e-005  3.811e-005    -4.297    -4.419    -0.122     (0)  
Mg           1.834e-002
   Mg+2           1.383e-002  4.902e-003    -1.859    -2.310    -0.451    -20.97
   MgSO4          4.491e-003  4.675e-003    -2.348    -2.330     0.017      5.84
   MgOH+          1.558e-005  1.203e-005    -4.807    -4.920    -0.113     (0)  
   MgCO3          2.290e-006  2.384e-006    -5.640    -5.623     0.017    -17.09
   MgHCO3+        1.261e-006  9.190e-007    -5.899    -6.037    -0.137      5.70
Na           6.040e-002
   Na+            5.919e-002  4.467e-002    -1.228    -1.350    -0.122     -0.99
   NaSO4-         1.207e-003  9.108e-004    -2.918    -3.041    -0.122     20.00
   NaHCO3         1.727e-006  1.798e-006    -5.763    -5.745     0.017     19.41
   NaCO3-         1.348e-007  1.017e-007    -6.870    -6.993    -0.122      0.14
   NaOH           2.935e-017  3.055e-017   -16.532   -16.515     0.017     (0)  
O(0)         2.493e-015
   O2             1.247e-015  1.298e-015   -14.904   -14.887     0.017     30.40
S(-2)        0.000e+000
   HS-            0.000e+000  0.000e+000  -119.814  -119.958    -0.144     20.97
   H2S            0.000e+000  0.000e+000  -121.865  -121.848     0.017     37.16
   S-2            0.000e+000  0.000e+000  -123.540  -124.045    -0.505     (0)  
S(6)         2.350e-002
   SO4-2          1.323e-002  4.068e-003    -1.878    -2.391    -0.512     15.47
   CaSO4          4.517e-003  4.702e-003    -2.345    -2.328     0.017      7.50
   MgSO4          4.491e-003  4.675e-003    -2.348    -2.330     0.017      5.84
   NaSO4-         1.207e-003  9.108e-004    -2.918    -3.041    -0.122     20.00
   KSO4-          5.050e-005  3.811e-005    -4.297    -4.419    -0.122     (0)  
   HSO4-          7.750e-010  5.832e-010    -9.111    -9.234    -0.124     40.63
   CaHSO4+        6.057e-011  4.557e-011   -10.218   -10.341    -0.124     (0)  

------------------------------Saturation indices-------------------------------

	Phase               SI   log IAP   log K(298 K,   1 atm)

	Anhydrite        -0.30     -4.58   -4.28  CaSO4
	Aragonite        -0.14     -8.48   -8.34  CaCO3
	Calcite           0.00     -8.48   -8.48  CaCO3
	CH4(g)         -122.43   -125.27   -2.84  CH4
	CO2(g)           -5.81     -7.27   -1.46  CO2
	Dolomite          0.01    -17.08  -17.09  CaMg(CO3)2
	Gypsum            0.00     -4.58   -4.58  CaSO4:2H2O
	H2(g)           -35.65    -38.75   -3.10  H2
	H2O(g)           -1.50     -0.00    1.50  H2O
	H2S(g)         -120.80   -128.79   -7.99  H2S
	Halite           -4.06     -2.49    1.57  NaCl
	O2(g)           -11.99    -14.89   -2.89  O2
	Sulfur          -91.13    -86.25    4.88  S
	Sylvite          -4.91     -4.01    0.90  KCl



Cell 7.

Using solution 7.	Solution after simulation 5.
Using exchange 7.	Exchange assemblage after simulation 5.
Using pure phase assemblage 7.	Pure-phase assemblage after simulation 5.

-------------------------------Phase assemblage--------------------------------

                                                      Moles in assemblage
Phase               SI  log IAP  log K(T, P)   Initial       Final       Delta

Calcite           0.00    -8.48     -8.48   1.030e+000  1.030e+000  2.351e-007
Dolomite          0.01   -17.08    -17.09   9.856e-001  9.856e-001  0.000e+000
Gypsum            0.00    -4.58     -4.58   9.706e-001  9.712e-001  6.498e-004

-----------------------------Exchange composition------------------------------

X               1.500e+000 mol

	                               Equiv-    Equivalent      Log 
	Species             Moles      alents      Fraction     Gamma

	CaX2             4.471e-001  8.941e-001  5.961e-001    -0.476
	MgX2             2.012e-001  4.025e-001  2.683e-001    -0.450
	NaX              1.727e-001  1.727e-001  1.152e-001    -0.122
	KX               3.063e-002  3.063e-002  2.042e-002    -0.141

-----------------------------Solution composition------------------------------

	Elements           Molality       Moles

	C                3.504e-005  3.507e-005
	Ca               2.508e-002  2.510e-002
	Cl               9.992e-002  1.000e-001
	K                1.949e-003  1.951e-003
	Mg               1.919e-002  1.921e-002
	Na               5.475e-002  5.480e-002
	S                2.262e-002  2.264e-002

----------------------------Description of solution----------------------------

                                       pH  =   8.811      Charge balance
                                       pe  =   9.209      Adjusted to redox equilibrium
       Specific Conductance (uS/cm, 25 oC) = 12471
                          Density (g/cm3)  =   1.00412
                               Volume (L)  =   1.00665
                        Activity of water  =   0.996
                           Ionic strength  =  1.738e-001
                       Mass of water (kg)  =  1.001e+000
                 Total alkalinity (eq/kg)  =  7.009e-005
                       Total CO2 (mol/kg)  =  3.504e-005
                      Temperature (deg C)  =  25.00
                  Electrical balance (eq)  =  8.901e-012
 Percent error, 100*(Cat-|An|)/(Cat+|An|)  =   0.00
                               Iterations  =   5
                                  Total H  = 1.111030e+002
                                  Total O  = 5.564217e+001

----------------------------Distribution of species----------------------------

                                               Log       Log       Log    mole V
   Species          Molality    Activity  Molality  Activity     Gamma   cm3/mol

   OH-            9.097e-006  6.534e-006    -5.041    -5.185    -0.144     -3.56
   H+             1.922e-009  1.543e-009    -8.716    -8.811    -0.095      0.00
   H2O            5.551e+001  9.964e-001     1.744    -0.002     0.000     18.07
C(-4)        0.000e+000
   CH4            0.000e+000  0.000e+000  -127.046  -127.029     0.017     32.22
C(4)         3.504e-005
   HCO3-          2.104e-005  1.588e-005    -4.677    -4.799    -0.122     25.60
   CaCO3          5.347e-006  5.565e-006    -5.272    -5.255     0.017    -14.60
   MgCO3          2.299e-006  2.393e-006    -5.638    -5.621     0.017    -17.09
   CaHCO3+        1.820e-006  1.391e-006    -5.740    -5.857    -0.117      9.87
   NaHCO3         1.554e-006  1.617e-006    -5.809    -5.791     0.017     19.41
   CO3-2          1.487e-006  4.825e-007    -5.828    -6.317    -0.489     -2.65
   MgHCO3+        1.325e-006  9.658e-007    -5.878    -6.015    -0.137      5.70
   NaCO3-         1.158e-007  8.738e-008    -6.936    -7.059    -0.122      0.14
   CO2            5.314e-008  5.531e-008    -7.275    -7.257     0.017     30.26
Ca           2.508e-002
   Ca+2           2.055e-002  6.866e-003    -1.687    -2.163    -0.476    -17.26
   CaSO4          4.517e-003  4.702e-003    -2.345    -2.328     0.017      7.50
   CaCO3          5.347e-006  5.565e-006    -5.272    -5.255     0.017    -14.60
   CaHCO3+        1.820e-006  1.391e-006    -5.740    -5.857    -0.117      9.87
   CaOH+          9.774e-007  7.356e-007    -6.010    -6.133    -0.123     (0)  
   CaHSO4+        6.339e-011  4.770e-011   -10.198   -10.321    -0.123     (0)  
Cl           9.992e-002
   Cl-            9.992e-002  7.254e-002    -1.000    -1.139    -0.139     18.43
H(0)         1.237e-039
   H2             6.185e-040  6.437e-040   -39.209   -39.191     0.017     28.61
K            1.949e-003
   K+             1.900e-003  1.373e-003    -2.721    -2.862    -0.141      9.32
   KSO4-          4.923e-005  3.715e-005    -4.308    -4.430    -0.122     (0)  
Mg           1.919e-002
   Mg+2           1.466e-002  5.198e-003    -1.834    -2.284    -0.450    -20.97
   MgSO4          4.508e-003  4.692e-003    -2.346    -2.329     0.017      5.84
[...]
   N2             6.591e-010  6.731e-010    -9.181    -9.172     0.009     29.29
N(3)         1.946e-015
   NO2-           1.946e-015  1.480e-015   -14.711   -14.830    -0.119     25.22
N(5)         2.356e-005
   NO3-           2.356e-005  1.792e-005    -4.628    -4.747    -0.119     29.79
Na           3.144e-002
   Na+            2.983e-002  2.357e-002    -1.525    -1.628    -0.102     -1.11
   NaSO4-         1.356e-003  1.076e-003    -2.868    -2.968    -0.100     19.41
   NaHCO3         2.536e-004  2.590e-004    -3.596    -3.587     0.009     19.41
   NaCO3-         1.521e-007  1.207e-007    -6.818    -6.918    -0.100     -0.18
   NaOH           1.303e-019  1.331e-019   -18.885   -18.876     0.009     (0)  
O(0)         3.295e-009
   O2             1.648e-009  1.683e-009    -8.783    -8.774     0.009     30.40
S(-2)        0.000e+000
   H2S            0.000e+000  0.000e+000  -129.564  -129.555     0.009     37.16
   HS-            0.000e+000  0.000e+000  -129.635  -129.750    -0.114     20.86
   S-2            0.000e+000  0.000e+000  -135.508  -135.921    -0.412     (0)  
S(6)         3.423e-002
   SO4-2          2.374e-002  9.109e-003    -1.625    -2.041    -0.416     15.03
   CaSO4          4.584e-003  4.681e-003    -2.339    -2.330     0.009      7.50
   MgSO4          4.476e-003  4.571e-003    -2.349    -2.340     0.009      5.84
   NaSO4-         1.356e-003  1.076e-003    -2.868    -2.968    -0.100     19.41
   KSO4-          6.992e-005  5.549e-005    -4.155    -4.256    -0.100     (0)  
   HSO4-          2.017e-007  1.585e-007    -6.695    -6.800    -0.104     40.52
   CaHSO4+        7.006e-009  5.508e-009    -8.155    -8.259    -0.104     (0)  
   NH4SO4-        0.000e+000  0.000e+000   -54.603   -54.707    -0.104     (0)  

------------------------------Saturation indices-------------------------------

	Phase               SI   log IAP   log K(298 K,   1 atm)

	Anhydrite        -0.30     -4.58   -4.28  CaSO4
	Aragonite        -0.14     -8.48   -8.34  CaCO3
	Calcite          -0.00     -8.48   -8.48  CaCO3
	CH4(g)         -130.13   -132.98   -2.84  CH4
	CO2(g)           -1.29     -2.75   -1.46  CO2
	Dolomite          0.00    -17.09  -17.09  CaMg(CO3)2
	Gypsum            0.00     -4.58   -4.58  CaSO4:2H2O
	H2(g)           -38.70    -41.80   -3.10  H2
	H2O(g)           -1.50     -0.00    1.50  H2O
	H2S(g)         -128.50   -136.50   -7.99  H2S
	Halite           -6.68     -5.11    1.57  NaCl
	N2(g)            -6.00     -9.17   -3.18  N2
	NH3(g)          -58.07    -56.27    1.80  NH3
	O2(g)            -5.88     -8.77   -2.89  O2
	Sulfur          -95.78    -90.90    4.88  S
	Sylvite          -7.45     -6.55    0.90  KCl



Cell 29.

Using solution 29.	Solution after simulation 5.
Using exchange 29.	Exchange assemblage after simulation 5.
Using pure phase assemblage 29.	Pure-phase assemblage after simulation 5.

-------------------------------Phase assemblage--------------------------------

                                                      Moles in assemblage
Phase               SI  log IAP  log K(T, P)   Initial       Final       Delta

Calcite          -0.00    -8.48     -8.48   1.030e+000  1.030e+000  3.617e-013
Dolomite          0.00   -17.09    -17.09   9.856e-001  9.856e-001  0.000e+000
Gypsum            0.00    -4.58     -4.58   9.697e-001  9.697e-001  3.392e-011

-----------------------------Exchange composition------------------------------

X               1.500e+000 mol

	                               Equiv-    Equivalent      Log 
	Species             Moles      alents      Fraction     Gamma

	CaX2             4.506e-001  9.012e-001  6.008e-001    -0.397
	MgX2             2.028e-001  4.055e-001  2.704e-001    -0.381
	NaX              1.626e-001  1.626e-001  1.084e-001    -0.102
	KX               3.072e-002  3.072e-002  2.048e-002    -0.113
	NH4X             4.825e-053  4.825e-053  3.216e-053    -0.124

-----------------------------Solution composition------------------------------

	Elements           Molality       Moles

	C                7.848e-003  7.857e-003
	Ca               1.200e-002  1.202e-002
	Cl               4.232e-004  4.237e-004
	K                1.195e-003  1.196e-003
	Mg               9.763e-003  9.774e-003
	N                2.356e-005  2.359e-005
	Na               3.144e-002  3.147e-002
	S                3.423e-002  3.426e-002

----------------------------Description of solution----------------------------

                                       pH  =   6.747      Charge balance
                                       pe  =  12.580      Adjusted to redox equilibrium
       Specific Conductance (uS/cm, 25 oC) = 5176
                          Density (g/cm3)  =   1.00188
                               Volume (L)  =   1.00705
                        Activity of water  =   0.999
                           Ionic strength  =  9.154e-002
                       Mass of water (kg)  =  1.001e+000
                 Total alkalinity (eq/kg)  =  6.132e-003
                       Total CO2 (mol/kg)  =  7.848e-003
                      Temperature (deg C)  =  25.00
                  Electrical balance (eq)  =  1.136e-003
 Percent error, 100*(Cat-|An|)/(Cat+|An|)  =   1.02
                               Iterations  =   5
                                  Total H  = 1.111422e+002
                                  Total O  = 5.572702e+001

----------------------------Distribution of species----------------------------

                                               Log       Log       Log    mole V
   Species          Molality    Activity  Molality  Activity     Gamma   cm3/mol

   H+             2.159e-007  1.790e-007    -6.666    -6.747    -0.081      0.00
   OH-            7.349e-008  5.646e-008    -7.134    -7.248    -0.114     -3.75
   H2O            5.551e+001  9.985e-001     1.744    -0.001     0.000     18.07
C(-4)        0.000e+000
   CH4            0.000e+000  0.000e+000  -132.986  -132.977     0.009     32.22
C(4)         7.848e-003
   HCO3-          5.514e-003  4.376e-003    -2.259    -2.359    -0.100     25.19
   CO2            1.727e-003  1.764e-003    -2.763    -2.754     0.009     30.26
   NaHCO3         2.536e-004  2.590e-004    -3.596    -3.587     0.009     19.41
   CaHCO3+        2.015e-004  1.613e-004    -3.696    -3.792    -0.097      9.83
   MgHCO3+        1.413e-004  1.096e-004    -3.850    -3.960    -0.110      5.65
   CaCO3          5.449e-006  5.565e-006    -5.264    -5.255     0.009    -14.60
   CO3-2          2.891e-006  1.146e-006    -5.539    -5.941    -0.402     -3.21
   MgCO3          2.293e-006  2.341e-006    -5.640    -5.631     0.009    -17.09
   NaCO3-         1.521e-007  1.207e-007    -6.818    -6.918    -0.100     -0.18
Ca           1.200e-002
   Ca+2           7.213e-003  2.890e-003    -2.142    -2.539    -0.397    -17.46
   CaSO4          4.584e-003  4.681e-003    -2.339    -2.330     0.009      7.50
   CaHCO3+        2.015e-004  1.613e-004    -3.696    -3.792    -0.097      9.83
   CaCO3          5.449e-006  5.565e-006    -5.264    -5.255     0.009    -14.60
   CaHSO4+        7.006e-009  5.508e-009    -8.155    -8.259    -0.104     (0)  
   CaOH+          3.403e-009  2.675e-009    -8.468    -8.573    -0.104     (0)  
Cl           4.232e-004
   Cl-            4.232e-004  3.271e-004    -3.373    -3.485    -0.112     18.33
H(0)         0.000e+000
   H2             0.000e+000  0.000e+000   -41.813   -41.804     0.009     28.61
K            1.195e-003
   K+             1.125e-003  8.669e-004    -2.949    -3.062    -0.113      9.23
   KSO4-          6.992e-005  5.549e-005    -4.155    -4.256    -0.100     (0)  
Mg           9.763e-003
   Mg+2           5.144e-003  2.141e-003    -2.289    -2.669    -0.381    -21.16
   MgSO4          4.476e-003  4.571e-003    -2.349    -2.340     0.009      5.84
   MgHCO3+        1.413e-004  1.096e-004    -3.850    -3.960    -0.110      5.65
   MgCO3          2.293e-006  2.341e-006    -5.640    -5.631     0.009    -17.09
   MgOH+          5.380e-008  4.335e-008    -7.269    -7.363    -0.094     (0)  
N(-3)        0.000e+000
   NH4+           0.000e+000  0.000e+000   -53.653   -53.777    -0.124     18.16
   NH4SO4-        0.000e+000  0.000e+000   -54.603   -54.707    -0.104     (0)  
   NH3            0.000e+000  0.000e+000   -56.283   -56.274     0.009     24.46
N(0)         1.318e-009
   N2             6.591e-010  6.731e-010    -9.181    -9.172     0.009     29.29
N(3)         1.946e-015
   NO2-           1.946e-015  1.480e-015   -14.711   -14.830    -0.119     25.22
N(5)         2.356e-005
   NO3-           2.356e-005  1.792e-005    -4.628    -4.747    -0.119     29.79
Na           3.144e-002
   Na+            2.983e-002  2.357e-002    -1.525    -1.628    -0.102     -1.11
   NaSO4-         1.356e-003  1.076e-003    -2.868    -2.968    -0.100     19.41
   NaHCO3         2.536e-004  2.590e-004    -3.596    -3.587     0.009     19.41
   NaCO3-         1.521e-007  1.207e-007    -6.818    -6.918    -0.100     -0.18
   NaOH           1.303e-019  1.331e-019   -18.885   -18.876     0.009     (0)  
O(0)         3.295e-009
   O2             1.648e-009  1.683e-009    -8.783    -8.774     0.009     30.40
S(-2)        0.000e+000
   H2S            0.000e+000  0.000e+000  -129.564  -129.555     0.009     37.16
   HS-            0.000e+000  0.000e+000  -129.635  -129.750    -0.114     20.86
   S-2            0.000e+000  0.000e+000  -135.508  -135.921    -0.412     (0)  
S(6)         3.423e-002
   SO4-2          2.374e-002  9.109e-003    -1.625    -2.041    -0.416     15.03
   CaSO4          4.584e-003  4.681e-003    -2.339    -2.330     0.009      7.50
   MgSO4          4.476e-003  4.571e-003    -2.349    -2.340     0.009      5.84
   NaSO4-         1.356e-003  1.076e-003    -2.868    -2.968    -0.100     19.41
   KSO4-          6.992e-005  5.549e-005    -4.155    -4.256    -0.100     (0)  
   HSO4-          2.017e-007  1.585e-007    -6.695    -6.800    -0.104     40.52
   CaHSO4+        7.006e-009  5.508e-009    -8.155    -8.259    -0.104     (0)  
   NH4SO4-        0.000e+000  0.000e+000   -54.603   -54.707    -0.104     (0)  

------------------------------Saturation indices-------------------------------

	Phase               SI   log IAP   log K(298 K,   1 atm)

	Anhydrite        -0.30     -4.58   -4.28  CaSO4
	Aragonite        -0.14     -8.48   -8.34  CaCO3
	Calcite          -0.00     -8.48   -8.48  CaCO3
	CH4(g)         -130.13   -132.98   -2.84  CH4
	CO2(g)           -1.29     -2.75   -1.46  CO2
	Dolomite          0.00    -17.09  -17.09  CaMg(CO3)2
	Gypsum            0.00     -4.58   -4.58  CaSO4:2H2O
	H2(g)           -38.70    -41.80   -3.10  H2
	H2O(g)           -1.50     -0.00    1.50  H2O
	H2S(g)         -128.50   -136.50   -7.99  H2S
	Halite           -6.68     -5.11    1.57  NaCl
	N2(g)            -6.00     -9.17   -3.18  N2
	NH3(g)          -58.07    -56.27    1.80  NH3
	O2(g)            -5.88     -8.77   -2.89  O2
	Sulfur          -95.78    -90.90    4.88  S
	Sylvite          -7.45     -6.55    0.90  KCl



Cell 30.

Using solution 30.	Solution after simulation 5.
Using exchange 30.	Exchange assemblage after simulation 5.
Using pure phase assemblage 30.	Pure-phase assemblage after simulation 5.

-------------------------------Phase assemblage--------------------------------

                                                      Moles in assemblage
Phase               SI  log IAP  log K(T, P)   Initial       Final       Delta

Calcite          -0.00    -8.48     -8.48   1.030e+000  1.030e+000  3.617e-013
Dolomite          0.00   -17.09    -17.09   9.856e-001  9.856e-001  0.000e+000
Gypsum            0.00    -4.58     -4.58   9.697e-001  9.697e-001  3.392e-011

-----------------------------Exchange composition------------------------------

X               1.500e+000 mol

	                               Equiv-    Equivalent      Log 
	Species             Moles      alents      Fraction     Gamma

	CaX2             4.506e-001  9.012e-001  6.008e-001    -0.397
	MgX2             2.028e-001  4.055e-001  2.704e-001    -0.381
	NaX              1.626e-001  1.626e-001  1.084e-001    -0.102
	KX               3.072e-002  3.072e-002  2.048e-002    -0.113
	NH4X             4.825e-053  4.825e-053  3.216e-053    -0.124

-----------------------------Solution composition------------------------------

	Elements           Molality       Moles

	C                7.848e-003  7.857e-003
	Ca               1.200e-002  1.202e-002
	Cl               4.232e-004  4.237e-004
	K                1.195e-003  1.196e-003
	Mg               9.763e-003  9.774e-003
	N                2.356e-005  2.359e-005
	Na               3.144e-002  3.147e-002
	S                3.423e-002  3.426e-002

----------------------------Description of solution----------------------------

                                       pH  =   6.747      Charge balance
                                       pe  =  12.580      Adjusted to redox equilibrium
       Specific Conductance (uS/cm, 25 oC) = 5176
                          Density (g/cm3)  =   1.00188
                               Volume (L)  =   1.00705
                        Activity of water  =   0.999
                           Ionic strength  =  9.154e-002
                       Mass of water (kg)  =  1.001e+000
                 Total alkalinity (eq/kg)  =  6.132e-003
                       Total CO2 (mol/kg)  =  7.848e-003
                      Temperature (deg C)  =  25.00
                  Electrical balance (eq)  =  1.136e-003
 Percent error, 100*(Cat-|An|)/(Cat+|An|)  =   1.02
                               Iterations  =   5
                                  Total H  = 1.111422e+002
                                  Total O  = 5.572702e+001

----------------------------Distribution of species----------------------------

                                               Log       Log       Log    mole V
   Species          Molality    Activity  Molality  Activity     Gamma   cm3/mol

   H+             2.159e-007  1.790e-007    -6.666    -6.747    -0.081      0.00
   OH-            7.349e-008  5.646e-008    -7.134    -7.248    -0.114     -3.75
   H2O            5.551e+001  9.985e-001     1.744    -0.001     0.000     18.07
C(-4)        0.000e+000
   CH4            0.000e+000  0.000e+000  -132.986  -132.977     0.009     32.22
C(4)         7.848e-003
   HCO3-          5.514e-003  4.376e-003    -2.259    -2.359    -0.100     25.19
   CO2            1.727e-003  1.764e-003    -2.763    -2.754     0.009     30.26
   NaHCO3         2.536e-004  2.590e-004    -3.596    -3.587     0.009     19.41
   CaHCO3+        2.015e-004  1.613e-004    -3.696    -3.792    -0.097      9.83
   MgHCO3+        1.413e-004  1.096e-004    -3.850    -3.960    -0.110      5.65
   CaCO3          5.449e-006  5.565e-006    -5.264    -5.255     0.009    -14.60
   CO3-2          2.891e-006  1.146e-006    -5.539    -5.941    -0.402     -3.21
   MgCO3          2.293e-006  2.341e-006    -5.640    -5.631     0.009    -17.09
   NaCO3-         1.521e-007  1.207e-007    -6.818    -6.918    -0.100     -0.18
Ca           1.200e-002
   Ca+2           7.213e-003  2.890e-003    -2.142    -2.539    -0.397    -17.46
   CaSO4          4.584e-003  4.681e-003    -2.339    -2.330     0.009      7.50
   CaHCO3+        2.015e-004  1.613e-004    -3.696    -3.792    -0.097      9.83
   CaCO3          5.449e-006  5.565e-006    -5.264    -5.255     0.009    -14.60
   CaHSO4+        7.006e-009  5.508e-009    -8.155    -8.259    -0.104     (0)  
   CaOH+          3.403e-009  2.675e-009    -8.468    -8.573    -0.104     (0)  
Cl           4.232e-004
   Cl-            4.232e-004  3.271e-004    -3.373    -3.485    -0.112     18.33
H(0)         0.000e+000
   H2             0.000e+000  0.000e+000   -41.813   -41.804     0.009     28.61
K            1.195e-003
   K+             1.125e-003  8.669e-004    -2.949    -3.062    -0.113      9.23
   KSO4-          6.992e-005  5.549e-005    -4.155    -4.256    -0.100     (0)  
Mg           9.763e-003
   Mg+2           5.144e-003  2.141e-003    -2.289    -2.669    -0.381    -21.16
   MgSO4          4.476e-003  4.571e-003    -2.349    -2.340     0.009      5.84
   MgHCO3+        1.413e-004  1.096e-004    -3.850    -3.960    -0.110      5.65
   MgCO3          2.293e-006  2.341e-006    -5.640    -5.631     0.009    -17.09
   MgOH+          5.380e-008  4.335e-008    -7.269    -7.363    -0.094     (0)  
N(-3)        0.000e+000
   NH4+           0.000e+000  0.000e+000   -53.653   -53.777    -0.124     18.16
   NH4SO4-        0.000e+000  0.000e+000   -54.603   -54.707    -0.104     (0)  
   NH3            0.000e+000  0.000e+000   -56.283   -56.274     0.009     24.46
N(0)         1.318e-009
   N2             6.591e-010  6.731e-010    -9.181    -9.172     0.009     29.29
N(3)         1.946e-015
   NO2-           1.946e-015  1.480e-015   -14.711   -14.830    -0.119     25.22
N(5)         2.356e-005
   NO3-           2.356e-005  1.792e-005    -4.628    -4.747    -0.119     29.79
Na           3.144e-002
   Na+            2.983e-002  2.357e-002    -1.525    -1.628    -0.102     -1.11
   NaSO4-         1.356e-003  1.076e-003    -2.868    -2.968    -0.100     19.41
   NaHCO3         2.536e-004  2.590e-004    -3.596    -3.587     0.009     19.41
   NaCO3-         1.521e-007  1.207e-007    -6.818    -6.918    -0.100     -0.18
   NaOH           1.303e-019  1.331e-019   -18.885   -18.876     0.009     (0)  
O(0)         3.295e-009
   O2             1.648e-009  1.683e-009    -8.783    -8.774     0.009     30.40
S(-2)        0.000e+000
   H2S            0.000e+000  0.000e+000  -129.564  -129.555     0.009     37.16
   HS-            0.000e+000  0.000e+000  -129.635  -129.750    -0.114     20.86
   S-2            0.000e+000  0.000e+000  -135.508  -135.921    -0.412     (0)  
S(6)         3.423e-002
   SO4-2          2.374e-002  9.109e-003    -1.625    -2.041    -0.416     15.03
   CaSO4          4.584e-003  4.681e-003    -2.339    -2.330     0.009      7.50
   MgSO4          4.476e-003  4.571e-003    -2.349    -2.340     0.009      5.84
   NaSO4-         1.356e-003  1.076e-003    -2.868    -2.968    -0.100     19.41
   KSO4-          6.992e-005  5.549e-005    -4.155    -4.256    -0.100     (0)  
   HSO4-          2.017e-007  1.585e-007    -6.695    -6.800    -0.104     40.52
   CaHSO4+        7.006e-009  5.508e-009    -8.155    -8.259    -0.104     (0)  
   NH4SO4-        0.000e+000  0.000e+000   -54.603   -54.707    -0.104     (0)  

------------------------------Saturation indices-------------------------------

	Phase               SI   log IAP   log K(298 K,   1 atm)

	Anhydrite        -0.30     -4.58   -4.28  CaSO4
	Aragonite        -0.14     -8.48   -8.34  CaCO3
	Calcite          -0.00     -8.48   -8.48  CaCO3
	CH4(g)         -130.13   -132.98   -2.84  CH4
	CO2(g)           -1.29     -2.75   -1.46  CO2
	Dolomite          0.00    -17.09  -17.09  CaMg(CO3)2
	Gypsum            0.00     -4.58   -4.58  CaSO4:2H2O
	H2(g)           -38.70    -41.80   -3.10  H2
	H2O(g)           -1.50     -0.00    1.50  H2O
	H2S(g)         -128.50   -136.50   -7.99  H2S
	Halite           -6.68     -5.11    1.57  NaCl
	N2(g)            -6.00     -9.17   -3.18  N2
	NH3(g)          -58.07    -56.27    1.80  NH3
	O2(g)            -5.88     -8.77   -2.89  O2
	Sulfur          -95.78    -90.90    4.88  S
	Sylvite          -7.45     -6.55    0.90  KCl


------------------
End of simulation.
------------------

------------------------------------
Reading input data for simulation 6.
------------------------------------

-------------------------------
End of Run after 0.331 Seconds.
-------------------------------

