   Input file: fiona
  Output file: fiona.out
Database file: ../database/phreeqc.dat

------------------
Reading data base.
------------------

	SOLUTION_MASTER_SPECIES
	SOLUTION_SPECIES
	PHASES
	EXCHANGE_MASTER_SPECIES
	EXCHANGE_SPECIES
	SURFACE_MASTER_SPECIES
	SURFACE_SPECIES
	RATES
	END
------------------------------------
Reading input data for simulation 1.
------------------------------------

	DATABASE ../database/phreeqc.dat
	TITLE Doug's test problem using Np in Reference Backfill water, stepping Eh
	 SOLUTION 1  Reference Backfill water
	         units   mol/L
	         pH      12.5
	         density 1.023
	         temp    25.0
	         Ca              5.1e-2
	         Mg              5.7e-3
	         Na              3.7e-1
	         K               4.4e-3
	         Al        1.7e-6    
	         Sr   2.0e-3
	         Si              2.0e-3
	         Cl              4.2e-1
	         C   1.0e-3
	         S(6)            1.2e-2
	         Np           1.e-10
	 SOLUTION_MASTER_SPECIES
	         Np       Np+4       0.0     237.048   237.048
	         Np(4)    Np+4     0.0     237.048
	         Np(5)    NpO2+  0.0     237.048
	 SOLUTION_SPECIES
	         Np+4                = Np+4
	                 log_k          0.0
	                 delta_h       = 0
	         Np+4 + 4H2O  = Np(OH)4 + 4H+
	                 logK = -9.83
	                 delta_h = 0
	         Np+4 + 2H2O  =  NpO2+ + 4H+ + e-
	                 logK =   -10.21
	                 delta_h        0 kcal/mol
	         NpO2+  + H2O =  NpO2OH + H+
	                 logK = -11.3
	                 delta_h = 0 kcal/mol
	         NpO2+ + 2H2O  =  NpO2(OH)2- + 2H+
	                 logK = -23.60
	                 delta_h = 0 kcal/mol
	 PHASES
	         Neptunium(IV)hydroxide
	         Np(OH)4 + 4H+  =  Np+4 + 4H2O
	                 log_k          0.74
	                 delta_h        0 kcal/mol
	         Neptunium(IV)oxide
	         NpO2 + 4H+ = Np+4 + 2H2O
	                 log_k          -2.68
	                 delta_h        0 kcal/mol
	         Neptunium(IV)oxide(am)
	         NpO2 + 4H+ = Np+4 + 2H2O
	                 log_k          1.53
	                 delta_h        0 kcal/mol
	             Fix_pe
	             e- = e-
	             log_k  0
	 END
-----
TITLE
-----

 Doug's test problem using Np in Reference Backfill water, stepping Eh

-------------------------------------------
Beginning of initial solution calculations.
-------------------------------------------

Initial solution 1.	Reference Backfill water

-----------------------------Solution composition------------------------------

	Elements           Molality       Moles

	Al               1.707e-006  1.707e-006
	C                1.004e-003  1.004e-003
	Ca               5.122e-002  5.122e-002
	Cl               4.218e-001  4.218e-001
	K                4.419e-003  4.419e-003
	Mg               5.724e-003  5.724e-003
	Na               3.716e-001  3.716e-001
	Np               1.004e-010  1.004e-010
	S(6)             1.205e-002  1.205e-002
	Si               2.009e-003  2.009e-003
	Sr               2.009e-003  2.009e-003

----------------------------Description of solution----------------------------

                                       pH  =  12.500    
                                       pe  =   4.000    
       Specific Conductance (uS/cm, 25 oC) = 48703
                          Density (g/cm3)  =   1.01833
                               Volume (L)  =   1.01086
                        Activity of water  =   0.984
                           Ionic strength  =  5.337e-001
                       Mass of water (kg)  =  1.000e+000
                 Total alkalinity (eq/kg)  =  6.714e-002
                       Total CO2 (mol/kg)  =  1.004e-003
                      Temperature (deg C)  =  25.00
                  Electrical balance (eq)  = -1.913e-002
 Percent error, 100*(Cat-|An|)/(Cat+|An|)  =  -1.98
                               Iterations  =   5
                                  Total H  = 1.110800e+002
                                  Total O  = 5.562782e+001

----------------------------Distribution of species----------------------------

                                               Log       Log       Log    mole V
   Species          Molality    Activity  Molality  Activity     Gamma   cm3/mol

   OH-            5.023e-002  3.151e-002    -1.299    -1.502    -0.203     -2.87
   H+             4.149e-013  3.162e-013   -12.382   -12.500    -0.118      0.00
   H2O            5.551e+001  9.844e-001     1.744    -0.007     0.000     18.07
Al           1.707e-006
   Al(OH)4-       1.707e-006  1.130e-006    -5.768    -5.947    -0.179     (0)  
   Al(OH)3        1.704e-013  1.926e-013   -12.769   -12.715     0.053     (0)  
   Al(OH)2+       6.102e-019  4.200e-019   -18.214   -18.377    -0.162     (0)  
   AlOH+2         7.674e-026  1.721e-026   -25.115   -25.764    -0.649    -26.61
   Al+3           6.410e-033  5.566e-034   -32.193   -33.254    -1.061    -42.59
   AlSO4+         3.664e-033  2.426e-033   -32.436   -32.615    -0.179     (0)  
   Al(SO4)2-      1.597e-034  1.057e-034   -33.797   -33.976    -0.179     (0)  
   AlHSO4+2       0.000e+000  0.000e+000   -45.633   -46.167    -0.535     (0)  
C(-4)        0.000e+000
   CH4            0.000e+000  0.000e+000  -120.309  -120.255     0.053     32.22
C(4)         1.004e-003
   CaCO3          7.030e-004  7.950e-004    -3.153    -3.100     0.053    -14.60
   CO3-2          2.007e-004  4.501e-005    -3.698    -4.347    -0.649     -0.90
   NaCO3-         7.726e-005  5.317e-005    -4.112    -4.274    -0.162      1.34
   SrCO3          1.153e-005  1.304e-005    -4.938    -4.885     0.053    -14.13
   MgCO3          1.112e-005  1.257e-005    -4.954    -4.901     0.053    -17.09
   HCO3-          4.410e-007  3.035e-007    -6.356    -6.518    -0.162     27.25
   NaHCO3         1.783e-007  2.016e-007    -6.749    -6.695     0.053     19.41
   CaHCO3+        5.787e-008  4.071e-008    -7.238    -7.390    -0.153      9.94
   SrHCO3+        3.061e-009  2.106e-009    -8.514    -8.676    -0.162     (0)  
   MgHCO3+        1.610e-009  1.039e-009    -8.793    -8.983    -0.190      5.80
   CO2            1.939e-013  2.192e-013   -12.713   -12.659     0.053     30.26
Ca           5.122e-002
   Ca+2           4.085e-002  1.051e-002    -1.389    -1.978    -0.589    -16.81
   CaOH+          7.389e-003  5.432e-003    -2.131    -2.265    -0.134     (0)  
   CaSO4          2.279e-003  2.576e-003    -2.642    -2.589     0.053      7.50
   CaCO3          7.030e-004  7.950e-004    -3.153    -3.100     0.053    -14.60
   CaHCO3+        5.787e-008  4.071e-008    -7.238    -7.390    -0.153      9.94
   CaHSO4+        7.285e-015  5.355e-015   -14.138   -14.271    -0.134     (0)  
Cl           4.218e-001
   Cl-            4.218e-001  2.723e-001    -0.375    -0.565    -0.190     18.71
H(0)         1.252e-036
   H2             6.261e-037  7.079e-037   -36.203   -36.150     0.053     28.61
K            4.419e-003
   K+             4.379e-003  2.798e-003    -2.359    -2.553    -0.194      9.58
   KSO4-          3.937e-005  2.710e-005    -4.405    -4.567    -0.162     (0)  
Mg           5.724e-003
   MgOH+          4.625e-003  3.308e-003    -2.335    -2.480    -0.146     (0)  
   Mg+2           1.005e-003  2.927e-004    -2.998    -3.534    -0.536    -20.53
   MgSO4          8.361e-005  9.454e-005    -4.078    -4.024     0.053      5.84
   MgCO3          1.112e-005  1.257e-005    -4.954    -4.901     0.053    -17.09
   MgHCO3+        1.610e-009  1.039e-009    -8.793    -8.983    -0.190      5.80
Na           3.716e-001
   Na+            3.689e-001  2.645e-001    -0.433    -0.578    -0.145     -0.67
   NaSO4-         2.654e-003  1.827e-003    -2.576    -2.738    -0.162     21.96
   NaCO3-         7.726e-005  5.317e-005    -4.112    -4.274    -0.162      1.34
   NaHCO3         1.783e-007  2.016e-007    -6.749    -6.695     0.053     19.41
   NaOH           7.369e-013  8.333e-013   -12.133   -12.079     0.053     (0)  
Np(4)        4.277e-016
   Np(OH)4        4.277e-016  4.836e-016   -15.369   -15.315     0.053     (0)  
   Np+4           0.000e+000  0.000e+000   -53.320   -55.458    -2.138     (0)  
Np(5)        1.004e-010
   NpO2(OH)2-     6.889e-011  5.064e-011   -10.162   -10.295    -0.134     (0)  
   NpO2OH         2.871e-011  3.246e-011   -10.542   -10.489     0.053     (0)  
   NpO2+          2.830e-012  2.080e-012   -11.548   -11.682    -0.134     (0)  
O(0)         1.426e-020
   O2             7.129e-021  8.061e-021   -20.147   -20.094     0.053     30.40
S(6)         1.205e-002
   SO4-2          6.888e-003  1.378e-003    -2.162    -2.861    -0.699     16.65
   NaSO4-         2.654e-003  1.827e-003    -2.576    -2.738    -0.162     21.96
   CaSO4          2.279e-003  2.576e-003    -2.642    -2.589     0.053      7.50
   SrSO4          1.078e-004  1.219e-004    -3.967    -3.914     0.053     24.24
   MgSO4          8.361e-005  9.454e-005    -4.078    -4.024     0.053      5.84
   KSO4-          3.937e-005  2.710e-005    -4.405    -4.567    -0.162     (0)  
   HSO4-          5.764e-014  4.237e-014   -13.239   -13.373    -0.134     40.89
   CaHSO4+        7.285e-015  5.355e-015   -14.138   -14.271    -0.134     (0)  
   AlSO4+         3.664e-033  2.426e-033   -32.436   -32.615    -0.179     (0)  
   Al(SO4)2-      1.597e-034  1.057e-034   -33.797   -33.976    -0.179     (0)  
   AlHSO4+2       0.000e+000  0.000e+000   -45.633   -46.167    -0.535     (0)  
Si           2.009e-003
   H3SiO4-        1.240e-003  8.002e-004    -2.907    -3.097    -0.190     28.63
   H2SiO4-2       7.674e-004  1.721e-004    -3.115    -3.764    -0.649     (0)  
   H4SiO4         1.518e-006  1.716e-006    -5.819    -5.765     0.053     52.08
Sr           2.009e-003
   Sr+2           1.782e-003  4.537e-004    -2.749    -3.343    -0.594    -16.63
   SrSO4          1.078e-004  1.219e-004    -3.967    -3.914     0.053     24.24
   SrOH+          1.070e-004  7.243e-005    -3.971    -4.140    -0.169     (0)  
   SrCO3          1.153e-005  1.304e-005    -4.938    -4.885     0.053    -14.13
   SrHCO3+        3.061e-009  2.106e-009    -8.514    -8.676    -0.162     (0)  

------------------------------Saturation indices-------------------------------

	Phase               SI   log IAP   log K(298 K,   1 atm)

	Al(OH)3(a)       -6.57      4.23   10.80  Al(OH)3
	Albite           -5.76    -23.77  -18.00  NaAlSi3O8
	Alunite         -31.68    -33.08   -1.40  KAl3(SO4)2(OH)6
	Anhydrite        -0.56     -4.84   -4.28  CaSO4
	Anorthite        -5.63    -25.35  -19.71  CaAl2Si2O8
	Aragonite         2.01     -6.32   -8.34  CaCO3
	Ca-Montmorillonite -15.23    -60.26  -45.03  Ca0.165Al2.33Si3.67O10(OH)2
	Calcite           2.15     -6.32   -8.48  CaCO3
	Celestite         0.45     -6.20   -6.66  SrSO4
	CH4(g)         -117.41   -120.26   -2.84  CH4
	Chalcedony       -2.20     -5.75   -3.55  SiO2
	Chlorite(14A)    30.11     98.49   68.38  Mg5Al2Si3O10(OH)8
	Chrysotile       20.66     52.86   32.20  Mg3Si2O5(OH)4
	CO2(g)          -11.20    -12.66   -1.46  CO2
	Dolomite          2.88    -14.21  -17.09  CaMg(CO3)2
	Fix_pe           -4.00     -4.00    0.00  e-
	Gibbsite         -3.88      4.23    8.11  Al(OH)3
	Gypsum           -0.27     -4.85   -4.58  CaSO4:2H2O
	H2(g)           -33.05    -36.15   -3.10  H2
	H2O(g)           -1.51     -0.01    1.50  H2O
	Halite           -2.71     -1.14    1.57  NaCl
	Illite          -10.93    -51.20  -40.27  K0.6Mg0.25Al2.3Si3.5O10(OH)2
	K-feldspar       -5.17    -25.74  -20.57  KAlSi3O8
	K-mica           -7.32      5.39   12.70  KAl3Si3O10(OH)2
	Kaolinite       -10.48     -3.05    7.43  Al2Si2O5(OH)4
	Neptunium(IV)hydroxide  -6.23     -5.49    0.74  Np(OH)4
	Neptunium(IV)oxide  -2.79     -5.47   -2.68  NpO2
	Neptunium(IV)oxide(am)  -7.00     -5.47    1.53  NpO2
	O2(g)           -17.20    -20.09   -2.89  O2
	Quartz           -1.77     -5.75   -3.98  SiO2
	Sepiolite         9.88     25.64   15.76  Mg2Si3O7.5OH:3H2O
	Sepiolite(d)      6.98     25.64   18.66  Mg2Si3O7.5OH:3H2O
	SiO2(a)          -3.04     -5.75   -2.71  SiO2
	Strontianite      1.58     -7.69   -9.27  SrCO3
	Sylvite          -4.02     -3.12    0.90  KCl
	Talc             19.97     41.36   21.40  Mg3Si4O10(OH)2


------------------
End of simulation.
------------------

------------------------------------
Reading input data for simulation 2.
------------------------------------

	USER_GRAPH
	-headings pe Np  Np(OH)4 NpO2OH NpO2(OH)2- NpO2+    
	-axis_titles Eh Np(moldm-3)   #These are for the graph axes
	-start
	10 graph_x  -la("e-")*2.303*8.31451*298/9.6485E4
	20 graph_y  tot("Np"),MOL("Np(OH)4"), MOL("NpO2OH"), MOL("NpO2(OH)2-"), MOL("NpO2+")    
	-end
	END
------------------
End of simulation.
------------------

------------------------------------
Reading input data for simulation 3.
------------------------------------

	USE solution 1
	EQUILIBRIUM_PHASES 1
	Fix_pe 7  O2(g) 1
	END
-----------------------------------------
Beginning of batch-reaction calculations.
-----------------------------------------

Reaction step 1.

Using solution 1.	Reference Backfill water
Using pure phase assemblage 1.	

-------------------------------Phase assemblage--------------------------------

                                                      Moles in assemblage
Phase               SI  log IAP  log K(T, P)   Initial       Final       Delta

Fix_pe            7.00     7.00      0.00
	 O2                 is reactant      1.000e+000  1.000e+000  2.510e-011

-----------------------------Solution composition------------------------------

	Elements           Molality       Moles

	Al               1.707e-006  1.707e-006
	C                1.004e-003  1.004e-003
	Ca               5.122e-002  5.122e-002
	Cl               4.218e-001  4.218e-001
	K                4.419e-003  4.419e-003
	Mg               5.724e-003  5.724e-003
	Na               3.716e-001  3.716e-001
	Np               1.004e-010  1.004e-010
	S                1.205e-002  1.205e-002
	Si               2.009e-003  2.009e-003
	Sr               2.009e-003  2.009e-003

----------------------------Description of solution----------------------------

                                       pH  =  12.500      Charge balance
                                       pe  =  -7.000      Adjusted to redox equilibrium
       Specific Conductance (uS/cm, 25 oC) = 48703
                          Density (g/cm3)  =   1.01833
                               Volume (L)  =   1.01086
                        Activity of water  =   0.984
                           Ionic strength  =  5.337e-001
                       Mass of water (kg)  =  1.000e+000
                 Total alkalinity (eq/kg)  =  6.714e-002
                       Total CO2 (mol/kg)  =  1.004e-003
                      Temperature (deg C)  =  25.00
                  Electrical balance (eq)  = -1.913e-002
 Percent error, 100*(Cat-|An|)/(Cat+|An|)  =  -1.98
                               Iterations  =  14
                                  Total H  = 1.110800e+002
                                  Total O  = 5.562782e+001

----------------------------Distribution of species----------------------------

                                               Log       Log       Log    mole V
   Species          Molality    Activity  Molality  Activity     Gamma   cm3/mol

   OH-            5.023e-002  3.151e-002    -1.299    -1.502    -0.203     -2.87
   H+             4.149e-013  3.162e-013   -12.382   -12.500    -0.118      0.00
   H2O            5.551e+001  9.844e-001     1.744    -0.007     0.000     18.07
Al           1.707e-006
   Al(OH)4-       1.707e-006  1.130e-006    -5.768    -5.947    -0.179     (0)  
   Al(OH)3        1.704e-013  1.926e-013   -12.769   -12.715     0.053     (0)  
   Al(OH)2+       6.102e-019  4.200e-019   -18.214   -18.377    -0.162     (0)  
   AlOH+2         7.674e-026  1.721e-026   -25.115   -25.764    -0.649    -26.61
   Al+3           6.410e-033  5.566e-034   -32.193   -33.254    -1.061    -42.59
   AlSO4+         3.664e-033  2.426e-033   -32.436   -32.615    -0.179     (0)  
   Al(SO4)2-      1.597e-034  1.057e-034   -33.797   -33.976    -0.179     (0)  
   AlHSO4+2       0.000e+000  0.000e+000   -45.633   -46.167    -0.535     (0)  
C(-4)        4.914e-033
   CH4            4.914e-033  5.556e-033   -32.309   -32.255     0.053     32.22
C(4)         1.004e-003
   CaCO3          7.030e-004  7.950e-004    -3.153    -3.100     0.053    -14.60
   CO3-2          2.007e-004  4.501e-005    -3.698    -4.347    -0.649     -0.90
   NaCO3-         7.726e-005  5.317e-005    -4.112    -4.274    -0.162      1.34
   SrCO3          1.153e-005  1.304e-005    -4.938    -4.885     0.053    -14.13
   MgCO3          1.112e-005  1.257e-005    -4.954    -4.901     0.053    -17.09
   HCO3-          4.410e-007  3.035e-007    -6.356    -6.518    -0.162     27.25
   NaHCO3         1.783e-007  2.016e-007    -6.749    -6.695     0.053     19.41
   CaHCO3+        5.787e-008  4.071e-008    -7.238    -7.390    -0.153      9.94
   SrHCO3+        3.061e-009  2.106e-009    -8.514    -8.676    -0.162     (0)  
   MgHCO3+        1.610e-009  1.039e-009    -8.793    -8.983    -0.190      5.80
   CO2            1.939e-013  2.192e-013   -12.713   -12.659     0.053     30.26
Ca           5.122e-002
   Ca+2           4.085e-002  1.051e-002    -1.389    -1.978    -0.589    -16.81
   CaOH+          7.389e-003  5.432e-003    -2.131    -2.265    -0.134     (0)  
   CaSO4          2.279e-003  2.576e-003    -2.642    -2.589     0.053      7.50
   CaCO3          7.030e-004  7.950e-004    -3.153    -3.100     0.053    -14.60
   CaHCO3+        5.787e-008  4.071e-008    -7.238    -7.390    -0.153      9.94
   CaHSO4+        7.285e-015  5.355e-015   -14.138   -14.271    -0.134     (0)  
Cl           4.218e-001
   Cl-            4.218e-001  2.723e-001    -0.375    -0.565    -0.190     18.71
H(0)         1.252e-014
   H2             6.261e-015  7.079e-015   -14.203   -14.150     0.053     28.61
K            4.419e-003
   K+             4.379e-003  2.798e-003    -2.359    -2.553    -0.194      9.58
   KSO4-          3.937e-005  2.710e-005    -4.405    -4.567    -0.162     (0)  
Mg           5.724e-003
   MgOH+          4.625e-003  3.308e-003    -2.335    -2.480    -0.146     (0)  
   Mg+2           1.005e-003  2.927e-004    -2.998    -3.534    -0.536    -20.53
   MgSO4          8.361e-005  9.454e-005    -4.078    -4.024     0.053      5.84
   MgCO3          1.112e-005  1.257e-005    -4.954    -4.901     0.053    -17.09
   MgHCO3+        1.610e-009  1.039e-009    -8.793    -8.983    -0.190      5.80
Na           3.716e-001
   Na+            3.689e-001  2.645e-001    -0.433    -0.578    -0.145     -0.67
   NaSO4-         2.654e-003  1.827e-003    -2.576    -2.738    -0.162     21.97
   NaCO3-         7.726e-005  5.317e-005    -4.112    -4.274    -0.162      1.34
   NaHCO3         1.783e-007  2.016e-007    -6.749    -6.695     0.053     19.41
   NaOH           7.369e-013  8.333e-013   -12.133   -12.079     0.053     (0)  
Np(4)        1.004e-010
   Np(OH)4        1.004e-010  1.136e-010    -9.998    -9.945     0.053     (0)  
   Np+4           0.000e+000  0.000e+000   -47.949   -50.088    -2.138     (0)  
Np(5)        2.358e-016
   NpO2(OH)2-     1.618e-016  1.189e-016   -15.791   -15.925    -0.134     (0)  
   NpO2OH         6.740e-017  7.621e-017   -16.171   -16.118     0.053     (0)  
   NpO2+          6.645e-018  4.885e-018   -17.177   -17.311    -0.134     (0)  
O(0)         0.000e+000
   O2             0.000e+000  0.000e+000   -64.147   -64.094     0.053     30.40
S(-2)        7.071e-026
   S-2            3.767e-026  7.917e-027   -25.424   -26.101    -0.677     (0)  
   HS-            3.304e-026  2.073e-026   -25.481   -25.683    -0.203     21.26
   H2S            5.068e-032  5.731e-032   -31.295   -31.242     0.053     37.16
S(6)         1.205e-002
   SO4-2          6.888e-003  1.378e-003    -2.162    -2.861    -0.699     16.65
   NaSO4-         2.654e-003  1.827e-003    -2.576    -2.738    -0.162     21.97
   CaSO4          2.279e-003  2.576e-003    -2.642    -2.589     0.053      7.50
   SrSO4          1.078e-004  1.219e-004    -3.967    -3.914     0.053     24.24
   MgSO4          8.361e-005  9.454e-005    -4.078    -4.024     0.053      5.84
   KSO4-          3.937e-005  2.710e-005    -4.405    -4.567    -0.162     (0)  
   HSO4-          5.764e-014  4.237e-014   -13.239   -13.373    -0.134     40.89
   CaHSO4+        7.285e-015  5.355e-015   -14.138   -14.271    -0.134     (0)  
   AlSO4+         3.664e-033  2.426e-033   -32.436   -32.615    -0.179     (0)  
   Al(SO4)2-      1.597e-034  1.057e-034   -33.797   -33.976    -0.179     (0)  
   AlHSO4+2       0.000e+000  0.000e+000   -45.633   -46.167    -0.535     (0)  
Si           2.009e-003
   H3SiO4-        1.240e-003  8.002e-004    -2.907    -3.097    -0.190     28.63
   H2SiO4-2       7.674e-004  1.721e-004    -3.115    -3.764    -0.649     (0)  
   H4SiO4         1.518e-006  1.716e-006    -5.819    -5.765     0.053     52.08
Sr           2.009e-003
   Sr+2           1.782e-003  4.537e-004    -2.749    -3.343    -0.594    -16.63
   SrSO4          1.078e-004  1.219e-004    -3.967    -3.914     0.053     24.24
   SrOH+          1.070e-004  7.243e-005    -3.971    -4.140    -0.169     (0)  
   SrCO3          1.153e-005  1.304e-005    -4.938    -4.885     0.053    -14.13
   SrHCO3+        3.061e-009  2.106e-009    -8.514    -8.676    -0.162     (0)  

------------------------------Saturation indices-------------------------------

	Phase               SI   log IAP   log K(298 K,   1 atm)

	Al(OH)3(a)       -6.57      4.23   10.80  Al(OH)3
	Albite           -5.76    -23.77  -18.00  NaAlSi3O8
	Alunite         -31.68    -33.08   -1.40  KAl3(SO4)2(OH)6
	Anhydrite        -0.56     -4.84   -4.28  CaSO4
	Anorthite        -5.63    -25.35  -19.71  CaAl2Si2O8
	Aragonite         2.01     -6.32   -8.34  CaCO3
	Ca-Montmorillonite -15.23    -60.26  -45.03  Ca0.165Al2.33Si3.67O10(OH)2
	Calcite           2.15     -6.32   -8.48  CaCO3
	Celestite         0.45     -6.20   -6.66  SrSO4
	CH4(g)          -29.41    -32.26   -2.84  CH4
	Chalcedony       -2.20     -5.75   -3.55  SiO2
	Chlorite(14A)    30.11     98.49   68.38  Mg5Al2Si3O10(OH)8
	Chrysotile       20.66     52.86   32.20  Mg3Si2O5(OH)4
	CO2(g)          -11.20    -12.66   -1.46  CO2
	Dolomite          2.88    -14.21  -17.09  CaMg(CO3)2
	Fix_pe            7.00      7.00    0.00  e-
	Gibbsite         -3.88      4.23    8.11  Al(OH)3
	Gypsum           -0.27     -4.85   -4.58  CaSO4:2H2O
	H2(g)           -11.05    -14.15   -3.10  H2
	H2O(g)           -1.51     -0.01    1.50  H2O
	H2S(g)          -30.19    -38.18   -7.99  H2S
	Halite           -2.71     -1.14    1.57  NaCl
	Illite          -10.93    -51.20  -40.27  K0.6Mg0.25Al2.3Si3.5O10(OH)2
	K-feldspar       -5.17    -25.74  -20.57  KAlSi3O8
	K-mica           -7.32      5.39   12.70  KAl3Si3O10(OH)2
	Kaolinite       -10.48     -3.05    7.43  Al2Si2O5(OH)4
	Neptunium(IV)hydroxide  -0.85     -0.11    0.74  Np(OH)4
	Neptunium(IV)oxide   2.58     -0.10   -2.68  NpO2
	Neptunium(IV)oxide(am)  -1.63     -0.10    1.53  NpO2
	O2(g)           -61.20    -64.09   -2.89  O2
	Quartz           -1.77     -5.75   -3.98  SiO2
	Sepiolite         9.88     25.64   15.76  Mg2Si3O7.5OH:3H2O
	Sepiolite(d)      6.98     25.64   18.66  Mg2Si3O7.5OH:3H2O
	SiO2(a)          -3.04     -5.75   -2.71  SiO2
	Strontianite      1.58     -7.69   -9.27  SrCO3
	Sulfur          -25.12    -20.24    4.88  S
	Sylvite          -4.02     -3.12    0.90  KCl
	Talc             19.97     41.36   21.40  Mg3Si4O10(OH)2


------------------
End of simulation.
------------------

------------------------------------
Reading input data for simulation 4.
------------------------------------

	USE solution 1
	EQUILIBRIUM_PHASES 1
	Fix_pe 6  O2(g)
	END
-----------------------------------------
Beginning of batch-reaction calculations.
-----------------------------------------

Reaction step 1.

Using solution 1.	Reference Backfill water
Using pure phase assemblage 1.	

-------------------------------Phase assemblage--------------------------------

                                                      Moles in assemblage
Phase               SI  log IAP  log K(T, P)   Initial       Final       Delta

Fix_pe            6.00     6.00      0.00
	 O2                 is reactant      1.000e+001  1.000e+001  2.510e-011

-----------------------------Solution composition------------------------------

	Elements           Molality       Moles

	Al               1.707e-006  1.707e-006
	C                1.004e-003  1.004e-003
	Ca               5.122e-002  5.122e-002
	Cl               4.218e-001  4.218e-001
	K                4.419e-003  4.419e-003
	Mg               5.724e-003  5.724e-003
	Na               3.716e-001  3.716e-001
	Np               1.004e-010  1.004e-010
	S                1.205e-002  1.205e-002
	Si               2.009e-003  2.009e-003
	Sr               2.009e-003  2.009e-003

----------------------------Description of solution----------------------------

                                       pH  =  12.500      Charge balance
                                       pe  =  -6.000      Adjusted to redox equilibrium
       Specific Conductance (uS/cm, 25 oC) = 48703
                          Density (g/cm3)  =   1.01833
                               Volume (L)  =   1.01086
                        Activity of water  =   0.984
                           Ionic strength  =  5.337e-001
                       Mass of water (kg)  =  1.000e+000
                 Total alkalinity (eq/kg)  =  6.714e-002
                       Total CO2 (mol/kg)  =  1.004e-003
                      Temperature (deg C)  =  25.00
                  Electrical balance (eq)  = -1.913e-002
 Percent error, 100*(Cat-|An|)/(Cat+|An|)  =  -1.98
                               Iterations  =  13
                                  Total H  = 1.110800e+002
                                  Total O  = 5.562782e+001

----------------------------Distribution of species----------------------------

                                               Log       Log       Log    mole V
   Species          Molality    Activity  Molality  Activity     Gamma   cm3/mol

   OH-            5.023e-002  3.151e-002    -1.299    -1.502    -0.203     -2.87
   H+             4.149e-013  3.162e-013   -12.382   -12.500    -0.118      0.00
   H2O            5.551e+001  9.844e-001     1.744    -0.007     0.000     18.07
Al           1.707e-006
   Al(OH)4-       1.707e-006  1.130e-006    -5.768    -5.947    -0.179     (0)  
   Al(OH)3        1.704e-013  1.926e-013   -12.769   -12.715     0.053     (0)  
   Al(OH)2+       6.102e-019  4.200e-019   -18.214   -18.377    -0.162     (0)  
   AlOH+2         7.674e-026  1.721e-026   -25.115   -25.764    -0.649    -26.61
   Al+3           6.410e-033  5.566e-034   -32.193   -33.254    -1.061    -42.59
   AlSO4+         3.664e-033  2.426e-033   -32.436   -32.615    -0.179     (0)  
   Al(SO4)2-      1.597e-034  1.057e-034   -33.797   -33.976    -0.179     (0)  
   AlHSO4+2       0.000e+000  0.000e+000   -45.633   -46.167    -0.535     (0)  
C(-4)        0.000e+000
   CH4            0.000e+000  0.000e+000   -40.309   -40.255     0.053     32.22
C(4)         1.004e-003
   CaCO3          7.030e-004  7.950e-004    -3.153    -3.100     0.053    -14.60
   CO3-2          2.007e-004  4.501e-005    -3.698    -4.347    -0.649     -0.90
   NaCO3-         7.726e-005  5.317e-005    -4.112    -4.274    -0.162      1.34
   SrCO3          1.153e-005  1.304e-005    -4.938    -4.885     0.053    -14.13
   MgCO3          1.112e-005  1.257e-005    -4.954    -4.901     0.053    -17.09
   HCO3-          4.410e-007  3.035e-007    -6.356    -6.518    -0.162     27.25
   NaHCO3         1.783e-007  2.016e-007    -6.749    -6.695     0.053     19.41
   CaHCO3+        5.787e-008  4.071e-008    -7.238    -7.390    -0.153      9.94
   SrHCO3+        3.061e-009  2.106e-009    -8.514    -8.676    -0.162     (0)  
   MgHCO3+        1.610e-009  1.039e-009    -8.793    -8.983    -0.190      5.80
   CO2            1.939e-013  2.192e-013   -12.713   -12.659     0.053     30.26
Ca           5.122e-002
   Ca+2           4.085e-002  1.051e-002    -1.389    -1.978    -0.589    -16.81
   CaOH+          7.389e-003  5.432e-003    -2.131    -2.265    -0.134     (0)  
   CaSO4          2.279e-003  2.576e-003    -2.642    -2.589     0.053      7.50
   CaCO3          7.030e-004  7.950e-004    -3.153    -3.100     0.053    -14.60
   CaHCO3+        5.787e-008  4.071e-008    -7.238    -7.390    -0.153      9.94
   CaHSO4+        7.285e-015  5.355e-015   -14.138   -14.271    -0.134     (0)  
Cl           4.218e-001
   Cl-            4.218e-001  2.723e-001    -0.375    -0.565    -0.190     18.71
H(0)         1.252e-016
   H2             6.261e-017  7.079e-017   -16.203   -16.150     0.053     28.61
K            4.419e-003
   K+             4.379e-003  2.798e-003    -2.359    -2.553    -0.194      9.58
   KSO4-          3.937e-005  2.710e-005    -4.405    -4.567    -0.162     (0)  
Mg           5.724e-003
   MgOH+          4.625e-003  3.308e-003    -2.335    -2.480    -0.146     (0)  
   Mg+2           1.005e-003  2.927e-004    -2.998    -3.534    -0.536    -20.53
   MgSO4          8.361e-005  9.454e-005    -4.078    -4.024     0.053      5.84
   MgCO3          1.112e-005  1.257e-005    -4.954    -4.901     0.053    -17.09
   MgHCO3+        1.610e-009  1.039e-009    -8.793    -8.983    -0.190      5.80
Na           3.716e-001
   Na+            3.689e-001  2.645e-001    -0.433    -0.578    -0.145     -0.67
   NaSO4-         2.654e-003  1.827e-003    -2.576    -2.738    -0.162     21.97
   NaCO3-         7.726e-005  5.317e-005    -4.112    -4.274    -0.162      1.34
   NaHCO3         1.783e-007  2.016e-007    -6.749    -6.695     0.053     19.41
   NaOH           7.369e-013  8.333e-013   -12.133   -12.079     0.053     (0)  
Np(4)        1.004e-010
   Np(OH)4        1.004e-010  1.136e-010    -9.998    -9.945     0.053     (0)  
   Np+4           0.000e+000  0.000e+000   -47.949   -50.088    -2.138     (0)  
Np(5)        2.358e-015
   NpO2(OH)2-     1.618e-015  1.189e-015   -14.791   -14.925    -0.134     (0)  
   NpO2OH         6.740e-016  7.621e-016   -15.171   -15.118     0.053     (0)  
   NpO2+          6.645e-017  4.885e-017   -16.178   -16.311    -0.134     (0)  
O(0)         0.000e+000
   O2             0.000e+000  0.000e+000   -60.147   -60.094     0.053     30.40
S(-2)        7.071e-034
   S-2            3.767e-034  7.917e-035   -33.424   -34.101    -0.677     (0)  
   HS-            3.304e-034  2.073e-034   -33.481   -33.683    -0.203     21.26
   H2S            5.068e-040  5.731e-040   -39.295   -39.242     0.053     37.16
S(6)         1.205e-002
   SO4-2          6.888e-003  1.378e-003    -2.162    -2.861    -0.699     16.65
   NaSO4-         2.654e-003  1.827e-003    -2.576    -2.738    -0.162     21.97
   CaSO4          2.279e-003  2.576e-003    -2.642    -2.589     0.053      7.50
   SrSO4          1.078e-004  1.219e-004    -3.967    -3.914     0.053     24.24
   MgSO4          8.361e-005  9.454e-005    -4.078    -4.024     0.053      5.84
   KSO4-          3.937e-005  2.710e-005    -4.405    -4.567    -0.162     (0)  
   HSO4-          5.764e-014  4.237e-014   -13.239   -13.373    -0.134     40.89
   CaHSO4+        7.285e-015  5.355e-015   -14.138   -14.271    -0.134     (0)  
   AlSO4+         3.664e-033  2.426e-033   -32.436   -32.615    -0.179     (0)  
   Al(SO4)2-      1.597e-034  1.057e-034   -33.797   -33.976    -0.179     (0)  
   AlHSO4+2       0.000e+000  0.000e+000   -45.633   -46.167    -0.535     (0)  
Si           2.009e-003
   H3SiO4-        1.240e-003  8.002e-004    -2.907    -3.097    -0.190     28.63
   H2SiO4-2       7.674e-004  1.721e-004    -3.115    -3.764    -0.649     (0)  
   H4SiO4         1.518e-006  1.716e-006    -5.819    -5.765     0.053     52.08
Sr           2.009e-003
   Sr+2           1.782e-003  4.537e-004    -2.749    -3.343    -0.594    -16.63
   SrSO4          1.078e-004  1.219e-004    -3.967    -3.914     0.053     24.24
   SrOH+          1.070e-004  7.243e-005    -3.971    -4.140    -0.169     (0)  
   SrCO3          1.153e-005  1.304e-005    -4.938    -4.885     0.053    -14.13
   SrHCO3+        3.061e-009  2.106e-009    -8.514    -8.676    -0.162     (0)  

------------------------------Saturation indices-------------------------------

	Phase               SI   log IAP   log K(298 K,   1 atm)

	Al(OH)3(a)       -6.57      4.23   10.80  Al(OH)3
	Albite           -5.76    -23.77  -18.00  NaAlSi3O8
	Alunite         -31.68    -33.08   -1.40  KAl3(SO4)2(OH)6
	Anhydrite        -0.56     -4.84   -4.28  CaSO4
	Anorthite        -5.63    -25.35  -19.71  CaAl2Si2O8
	Aragonite         2.01     -6.32   -8.34  CaCO3
	Ca-Montmorillonite -15.23    -60.26  -45.03  Ca0.165Al2.33Si3.67O10(OH)2
	Calcite           2.15     -6.32   -8.48  CaCO3
	Celestite         0.45     -6.20   -6.66  SrSO4
	CH4(g)          -37.41    -40.26   -2.84  CH4
	Chalcedony       -2.20     -5.75   -3.55  SiO2
	Chlorite(14A)    30.11     98.49   68.38  Mg5Al2Si3O10(OH)8
	Chrysotile       20.66     52.86   32.20  Mg3Si2O5(OH)4
	CO2(g)          -11.20    -12.66   -1.46  CO2
	Dolomite          2.88    -14.21  -17.09  CaMg(CO3)2
	Fix_pe            6.00      6.00    0.00  e-
	Gibbsite         -3.88      4.23    8.11  Al(OH)3
	Gypsum           -0.27     -4.85   -4.58  CaSO4:2H2O
	H2(g)           -13.05    -16.15   -3.10  H2
	H2O(g)           -1.51     -0.01    1.50  H2O
	H2S(g)          -38.19    -46.18   -7.99  H2S
	Halite           -2.71     -1.14    1.57  NaCl
	Illite          -10.93    -51.20  -40.27  K0.6Mg0.25Al2.3Si3.5O10(OH)2
	K-feldspar       -5.17    -25.74  -20.57  KAlSi3O8
	K-mica           -7.32      5.39   12.70  KAl3Si3O10(OH)2
	Kaolinite       -10.48     -3.05    7.43  Al2Si2O5(OH)4
	Neptunium(IV)hydroxide  -0.85     -0.11    0.74  Np(OH)4
	Neptunium(IV)oxide   2.58     -0.10   -2.68  NpO2
	Neptunium(IV)oxide(am)  -1.63     -0.10    1.53  NpO2
	O2(g)           -57.20    -60.09   -2.89  O2
	Quartz           -1.77     -5.75   -3.98  SiO2
	Sepiolite         9.88     25.64   15.76  Mg2Si3O7.5OH:3H2O
	Sepiolite(d)      6.98     25.64   18.66  Mg2Si3O7.5OH:3H2O
	SiO2(a)          -3.04     -5.75   -2.71  SiO2
	Strontianite      1.58     -7.69   -9.27  SrCO3
	Sulfur          -31.12    -26.24    4.88  S
	Sylvite          -4.02     -3.12    0.90  KCl
	Talc             19.97     41.36   21.40  Mg3Si4O10(OH)2


------------------
End of simulation.
------------------

------------------------------------
Reading input data for simulation 5.
------------------------------------

	USE solution 1
	EQUILIBRIUM_PHASES 1
	Fix_pe 5  O2(g)
	END
-----------------------------------------
Beginning of batch-reaction calculations.
-----------------------------------------

Reaction step 1.

Using solution 1.	Reference Backfill water
Using pure phase assemblage 1.	

-------------------------------Phase assemblage--------------------------------

                                                      Moles in assemblage
Phase               SI  log IAP  log K(T, P)   Initial       Final       Delta

Fix_pe            5.00     5.00      0.00
	 O2                 is reactant      1.000e+001  1.000e+001  2.509e-011

-----------------------------Solution composition------------------------------

	Elements           Molality       Moles

	Al               1.707e-006  1.707e-006
	C                1.004e-003  1.004e-003
	Ca               5.122e-002  5.122e-002
	Cl               4.218e-001  4.218e-001
	K                4.419e-003  4.419e-003
	Mg               5.724e-003  5.724e-003
	Na               3.716e-001  3.716e-001
	Np               1.004e-010  1.004e-010
	S                1.205e-002  1.205e-002
	Si               2.009e-003  2.009e-003
	Sr               2.009e-003  2.009e-003

----------------------------Description of solution----------------------------

                                       pH  =  12.500      Charge balance
                                       pe  =  -5.000      Adjusted to redox equilibrium
       Specific Conductance (uS/cm, 25 oC) = 48703
                          Density (g/cm3)  =   1.01833
                               Volume (L)  =   1.01086
                        Activity of water  =   0.984
                           Ionic strength  =  5.337e-001
                       Mass of water (kg)  =  1.000e+000
                 Total alkalinity (eq/kg)  =  6.714e-002
                       Total CO2 (mol/kg)  =  1.004e-003
                      Temperature (deg C)  =  25.00
                  Electrical balance (eq)  = -1.913e-002
 Percent error, 100*(Cat-|An|)/(Cat+|An|)  =  -1.98
                               Iterations  =  12
                                  Total H  = 1.110800e+002
                                  Total O  = 5.562782e+001

----------------------------Distribution of species----------------------------

                                               Log       Log       Log    mole V
   Species          Molality    Activity  Molality  Activity     Gamma   cm3/mol

   OH-            5.023e-002  3.151e-002    -1.299    -1.502    -0.203     -2.87
   H+             4.149e-013  3.162e-013   -12.382   -12.500    -0.118      0.00
   H2O            5.551e+001  9.844e-001     1.744    -0.007     0.000     18.07
Al           1.707e-006
   Al(OH)4-       1.707e-006  1.130e-006    -5.768    -5.947    -0.179     (0)  
   Al(OH)3        1.704e-013  1.926e-013   -12.769   -12.715     0.053     (0)  
   Al(OH)2+       6.102e-019  4.200e-019   -18.214   -18.377    -0.162     (0)  
   AlOH+2         7.674e-026  1.721e-026   -25.115   -25.764    -0.649    -26.61
   Al+3           6.410e-033  5.566e-034   -32.193   -33.254    -1.061    -42.59
   AlSO4+         3.664e-033  2.426e-033   -32.436   -32.615    -0.179     (0)  
   Al(SO4)2-      1.597e-034  1.057e-034   -33.797   -33.976    -0.179     (0)  
   AlHSO4+2       0.000e+000  0.000e+000   -45.633   -46.167    -0.535     (0)  
C(-4)        0.000e+000
   CH4            0.000e+000  0.000e+000   -48.309   -48.255     0.053     32.22
C(4)         1.004e-003
   CaCO3          7.030e-004  7.950e-004    -3.153    -3.100     0.053    -14.60
   CO3-2          2.007e-004  4.501e-005    -3.698    -4.347    -0.649     -0.90
   NaCO3-         7.726e-005  5.317e-005    -4.112    -4.274    -0.162      1.34
   SrCO3          1.153e-005  1.304e-005    -4.938    -4.885     0.053    -14.13
   MgCO3          1.112e-005  1.257e-005    -4.954    -4.901     0.053    -17.09
   HCO3-          4.410e-007  3.035e-007    -6.356    -6.518    -0.162     27.25
   NaHCO3         1.783e-007  2.016e-007    -6.749    -6.695     0.053     19.41
   CaHCO3+        5.787e-008  4.071e-008    -7.238    -7.390    -0.153      9.94
   SrHCO3+        3.061e-009  2.106e-009    -8.514    -8.676    -0.162     (0)  
   MgHCO3+        1.610e-009  1.039e-009    -8.793    -8.983    -0.190      5.80
   CO2            1.939e-013  2.192e-013   -12.713   -12.659     0.053     30.26
Ca           5.122e-002
   Ca+2           4.085e-002  1.051e-002    -1.389    -1.978    -0.589    -16.81
   CaOH+          7.389e-003  5.432e-003    -2.131    -2.265    -0.134     (0)  
   CaSO4          2.279e-003  2.576e-003    -2.642    -2.589     0.053      7.50
   CaCO3          7.030e-004  7.950e-004    -3.153    -3.100     0.053    -14.60
   CaHCO3+        5.787e-008  4.071e-008    -7.238    -7.390    -0.153      9.94
   CaHSO4+        7.285e-015  5.355e-015   -14.138   -14.271    -0.134     (0)  
Cl           4.218e-001
   Cl-            4.218e-001  2.723e-001    -0.375    -0.565    -0.190     18.71
H(0)         1.252e-018
   H2             6.261e-019  7.079e-019   -18.203   -18.150     0.053     28.61
K            4.419e-003
   K+             4.379e-003  2.798e-003    -2.359    -2.553    -0.194      9.58
   KSO4-          3.937e-005  2.710e-005    -4.405    -4.567    -0.162     (0)  
Mg           5.724e-003
   MgOH+          4.625e-003  3.308e-003    -2.335    -2.480    -0.146     (0)  
   Mg+2           1.005e-003  2.927e-004    -2.998    -3.534    -0.536    -20.53
   MgSO4          8.361e-005  9.454e-005    -4.078    -4.024     0.053      5.84
   MgCO3          1.112e-005  1.257e-005    -4.954    -4.901     0.053    -17.09
   MgHCO3+        1.610e-009  1.039e-009    -8.793    -8.983    -0.190      5.80
Na           3.716e-001
   Na+            3.689e-001  2.645e-001    -0.433    -0.578    -0.145     -0.67
   NaSO4-         2.654e-003  1.827e-003    -2.576    -2.738    -0.162     21.97
   NaCO3-         7.726e-005  5.317e-005    -4.112    -4.274    -0.162      1.34
   NaHCO3         1.783e-007  2.016e-007    -6.749    -6.695     0.053     19.41
   NaOH           7.369e-013  8.333e-013   -12.133   -12.079     0.053     (0)  
Np(4)        1.004e-010
   Np(OH)4        1.004e-010  1.135e-010    -9.998    -9.945     0.053     (0)  
   Np+4           0.000e+000  0.000e+000   -47.949   -50.088    -2.138     (0)  
Np(5)        2.358e-014
   NpO2(OH)2-     1.617e-014  1.189e-014   -13.791   -13.925    -0.134     (0)  
   NpO2OH         6.739e-015  7.620e-015   -14.171   -14.118     0.053     (0)  
   NpO2+          6.644e-016  4.884e-016   -15.178   -15.311    -0.134     (0)  
O(0)         0.000e+000
   O2             0.000e+000  0.000e+000   -56.147   -56.094     0.053     30.40
S(-2)        0.000e+000
   S-2            0.000e+000  0.000e+000   -41.424   -42.101    -0.677     (0)  
   HS-            0.000e+000  0.000e+000   -41.481   -41.683    -0.203     21.26
   H2S            0.000e+000  0.000e+000   -47.295   -47.242     0.053     37.16
S(6)         1.205e-002
   SO4-2          6.888e-003  1.378e-003    -2.162    -2.861    -0.699     16.65
   NaSO4-         2.654e-003  1.827e-003    -2.576    -2.738    -0.162     21.97
   CaSO4          2.279e-003  2.576e-003    -2.642    -2.589     0.053      7.50
   SrSO4          1.078e-004  1.219e-004    -3.967    -3.914     0.053     24.24
   MgSO4          8.361e-005  9.454e-005    -4.078    -4.024     0.053      5.84
   KSO4-          3.937e-005  2.710e-005    -4.405    -4.567    -0.162     (0)  
   HSO4-          5.764e-014  4.237e-014   -13.239   -13.373    -0.134     40.89
   CaHSO4+        7.285e-015  5.355e-015   -14.138   -14.271    -0.134     (0)  
   AlSO4+         3.664e-033  2.426e-033   -32.436   -32.615    -0.179     (0)  
   Al(SO4)2-      1.597e-034  1.057e-034   -33.797   -33.976    -0.179     (0)  
   AlHSO4+2       0.000e+000  0.000e+000   -45.633   -46.167    -0.535     (0)  
Si           2.009e-003
   H3SiO4-        1.240e-003  8.002e-004    -2.907    -3.097    -0.190     28.63
   H2SiO4-2       7.674e-004  1.721e-004    -3.115    -3.764    -0.649     (0)  
   H4SiO4         1.518e-006  1.716e-006    -5.819    -5.765     0.053     52.08
Sr           2.009e-003
   Sr+2           1.782e-003  4.537e-004    -2.749    -3.343    -0.594    -16.63
   SrSO4          1.078e-004  1.219e-004    -3.967    -3.914     0.053     24.24
   SrOH+          1.070e-004  7.243e-005    -3.971    -4.140    -0.169     (0)  
   SrCO3          1.153e-005  1.304e-005    -4.938    -4.885     0.053    -14.13
   SrHCO3+        3.061e-009  2.106e-009    -8.514    -8.676    -0.162     (0)  

------------------------------Saturation indices-------------------------------

	Phase               SI   log IAP   log K(298 K,   1 atm)

	Al(OH)3(a)       -6.57      4.23   10.80  Al(OH)3
	Albite           -5.76    -23.77  -18.00  NaAlSi3O8
	Alunite         -31.68    -33.08   -1.40  KAl3(SO4)2(OH)6
	Anhydrite        -0.56     -4.84   -4.28  CaSO4
	Anorthite        -5.63    -25.35  -19.71  CaAl2Si2O8
	Aragonite         2.01     -6.32   -8.34  CaCO3
	Ca-Montmorillonite -15.23    -60.26  -45.03  Ca0.165Al2.33Si3.67O10(OH)2
	Calcite           2.15     -6.32   -8.48  CaCO3
	Celestite         0.45     -6.20   -6.66  SrSO4
	CH4(g)          -45.41    -48.26   -2.84  CH4
	Chalcedony       -2.20     -5.75   -3.55  SiO2
	Chlorite(14A)    30.11     98.49   68.38  Mg5Al2Si3O10(OH)8
	Chrysotile       20.66     52.86   32.20  Mg3Si2O5(OH)4
	CO2(g)          -11.20    -12.66   -1.46  CO2
	Dolomite          2.88    -14.21  -17.09  CaMg(CO3)2
	Fix_pe            5.00      5.00    0.00  e-
	Gibbsite         -3.88      4.23    8.11  Al(OH)3
	Gypsum           -0.27     -4.85   -4.58  CaSO4:2H2O
	H2(g)           -15.05    -18.15   -3.10  H2
	H2O(g)           -1.51     -0.01    1.50  H2O
	H2S(g)          -46.19    -54.18   -7.99  H2S
	Halite           -2.71     -1.14    1.57  NaCl
	Illite          -10.93    -51.20  -40.27  K0.6Mg0.25Al2.3Si3.5O10(OH)2
	K-feldspar       -5.17    -25.74  -20.57  KAlSi3O8
	K-mica           -7.32      5.39   12.70  KAl3Si3O10(OH)2
	Kaolinite       -10.48     -3.05    7.43  Al2Si2O5(OH)4
	Neptunium(IV)hydroxide  -0.85     -0.11    0.74  Np(OH)4
	Neptunium(IV)oxide   2.58     -0.10   -2.68  NpO2
	Neptunium(IV)oxide(am)  -1.63     -0.10    1.53  NpO2
	O2(g)           -53.20    -56.09   -2.89  O2
	Quartz           -1.77     -5.75   -3.98  SiO2
	Sepiolite         9.88     25.64   15.76  Mg2Si3O7.5OH:3H2O
	Sepiolite(d)      6.98     25.64   18.66  Mg2Si3O7.5OH:3H2O
	SiO2(a)          -3.04     -5.75   -2.71  SiO2
	Strontianite      1.58     -7.69   -9.27  SrCO3
	Sulfur          -37.12    -32.24    4.88  S
	Sylvite          -4.02     -3.12    0.90  KCl
	Talc             19.97     41.36   21.40  Mg3Si4O10(OH)2


------------------
End of simulation.
------------------

------------------------------------
Reading input data for simulation 6.
------------------------------------

	USE solution 1
	EQUILIBRIUM_PHASES 1
	Fix_pe 4  O2(g)
	END
-----------------------------------------
Beginning of batch-reaction calculations.
-----------------------------------------

Reaction step 1.

Using solution 1.	Reference Backfill water
Using pure phase assemblage 1.	

-------------------------------Phase assemblage--------------------------------

                                                      Moles in assemblage
Phase               SI  log IAP  log K(T, P)   Initial       Final       Delta

Fix_pe            4.00     4.00      0.00
	 O2                 is reactant      1.000e+001  1.000e+001  2.504e-011

-----------------------------Solution composition------------------------------

	Elements           Molality       Moles

	Al               1.707e-006  1.707e-006
	C                1.004e-003  1.004e-003
	Ca               5.122e-002  5.122e-002
	Cl               4.218e-001  4.218e-001
	K                4.419e-003  4.419e-003
	Mg               5.724e-003  5.724e-003
	Na               3.716e-001  3.716e-001
	Np               1.004e-010  1.004e-010
	S                1.205e-002  1.205e-002
	Si               2.009e-003  2.009e-003
	Sr               2.009e-003  2.009e-003

----------------------------Description of solution----------------------------

                                       pH  =  12.500      Charge balance
                                       pe  =  -4.000      Adjusted to redox equilibrium
       Specific Conductance (uS/cm, 25 oC) = 48703
                          Density (g/cm3)  =   1.01833
                               Volume (L)  =   1.01086
                        Activity of water  =   0.984
                           Ionic strength  =  5.337e-001
                       Mass of water (kg)  =  1.000e+000
                 Total alkalinity (eq/kg)  =  6.714e-002
                       Total CO2 (mol/kg)  =  1.004e-003
                      Temperature (deg C)  =  25.00
                  Electrical balance (eq)  = -1.913e-002
 Percent error, 100*(Cat-|An|)/(Cat+|An|)  =  -1.98
                               Iterations  =  12
                                  Total H  = 1.110800e+002
                                  Total O  = 5.562782e+001

----------------------------Distribution of species----------------------------

                                               Log       Log       Log    mole V
   Species          Molality    Activity  Molality  Activity     Gamma   cm3/mol

   OH-            5.023e-002  3.151e-002    -1.299    -1.502    -0.203     -2.87
   H+             4.149e-013  3.162e-013   -12.382   -12.500    -0.118      0.00
   H2O            5.551e+001  9.844e-001     1.744    -0.007     0.000     18.07
Al           1.707e-006
   Al(OH)4-       1.707e-006  1.130e-006    -5.768    -5.947    -0.179     (0)  
   Al(OH)3        1.704e-013  1.926e-013   -12.769   -12.715     0.053     (0)  
   Al(OH)2+       6.102e-019  4.200e-019   -18.214   -18.377    -0.162     (0)  
   AlOH+2         7.674e-026  1.721e-026   -25.115   -25.764    -0.649    -26.61
   Al+3           6.410e-033  5.566e-034   -32.193   -33.254    -1.061    -42.59
   AlSO4+         3.664e-033  2.426e-033   -32.436   -32.615    -0.179     (0)  
   Al(SO4)2-      1.597e-034  1.057e-034   -33.797   -33.976    -0.179     (0)  
   AlHSO4+2       0.000e+000  0.000e+000   -45.633   -46.167    -0.535     (0)  
C(-4)        0.000e+000
   CH4            0.000e+000  0.000e+000   -56.309   -56.255     0.053     32.22
C(4)         1.004e-003
   CaCO3          7.030e-004  7.950e-004    -3.153    -3.100     0.053    -14.60
   CO3-2          2.007e-004  4.501e-005    -3.698    -4.347    -0.649     -0.90
   NaCO3-         7.726e-005  5.317e-005    -4.112    -4.274    -0.162      1.34
   SrCO3          1.153e-005  1.304e-005    -4.938    -4.885     0.053    -14.13
   MgCO3          1.112e-005  1.257e-005    -4.954    -4.901     0.053    -17.09
   HCO3-          4.410e-007  3.035e-007    -6.356    -6.518    -0.162     27.25
   NaHCO3         1.783e-007  2.016e-007    -6.749    -6.695     0.053     19.41
   CaHCO3+        5.787e-008  4.071e-008    -7.238    -7.390    -0.153      9.94
   SrHCO3+        3.061e-009  2.106e-009    -8.514    -8.676    -0.162     (0)  
   MgHCO3+        1.610e-009  1.039e-009    -8.793    -8.983    -0.190      5.80
   CO2            1.939e-013  2.192e-013   -12.713   -12.659     0.053     30.26
Ca           5.122e-002
   Ca+2           4.085e-002  1.051e-002    -1.389    -1.978    -0.589    -16.81
   CaOH+          7.389e-003  5.432e-003    -2.131    -2.265    -0.134     (0)  
   CaSO4          2.279e-003  2.576e-003    -2.642    -2.589     0.053      7.50
   CaCO3          7.030e-004  7.950e-004    -3.153    -3.100     0.053    -14.60
   CaHCO3+        5.787e-008  4.071e-008    -7.238    -7.390    -0.153      9.94
   CaHSO4+        7.285e-015  5.355e-015   -14.138   -14.271    -0.134     (0)  
Cl           4.218e-001
   Cl-            4.218e-001  2.723e-001    -0.375    -0.565    -0.190     18.71
H(0)         1.252e-020
   H2             6.261e-021  7.079e-021   -20.203   -20.150     0.053     28.61
K            4.419e-003
   K+             4.379e-003  2.798e-003    -2.359    -2.553    -0.194      9.58
   KSO4-          3.937e-005  2.710e-005    -4.405    -4.567    -0.162     (0)  
Mg           5.724e-003
   MgOH+          4.625e-003  3.308e-003    -2.335    -2.480    -0.146     (0)  
   Mg+2           1.005e-003  2.927e-004    -2.998    -3.534    -0.536    -20.53
   MgSO4          8.361e-005  9.454e-005    -4.078    -4.024     0.053      5.84
   MgCO3          1.112e-005  1.257e-005    -4.954    -4.901     0.053    -17.09
   MgHCO3+        1.610e-009  1.039e-009    -8.793    -8.983    -0.190      5.80
Na           3.716e-001
   Na+            3.689e-001  2.645e-001    -0.433    -0.578    -0.145     -0.67
   NaSO4-         2.654e-003  1.827e-003    -2.576    -2.738    -0.162     21.97
   NaCO3-         7.726e-005  5.317e-005    -4.112    -4.274    -0.162      1.34
   NaHCO3         1.783e-007  2.016e-007    -6.749    -6.695     0.053     19.41
   NaOH           7.369e-013  8.333e-013   -12.133   -12.079     0.053     (0)  
Np(4)        1.002e-010
   Np(OH)4        1.002e-010  1.133e-010    -9.999    -9.946     0.053     (0)  
   Np+4           0.000e+000  0.000e+000   -47.950   -50.089    -2.138     (0)  
Np(5)        2.353e-013
   NpO2(OH)2-     1.614e-013  1.186e-013   -12.792   -12.926    -0.134     (0)  
   NpO2OH         6.724e-014  7.604e-014   -13.172   -13.119     0.053     (0)  
   NpO2+          6.630e-015  4.873e-015   -14.179   -14.312    -0.134     (0)  
O(0)         0.000e+000
   O2             0.000e+000  0.000e+000   -52.147   -52.094     0.053     30.40
S(-2)        0.000e+000
   S-2            0.000e+000  0.000e+000   -49.424   -50.101    -0.677     (0)  
   HS-            0.000e+000  0.000e+000   -49.481   -49.683    -0.203     21.26
   H2S            0.000e+000  0.000e+000   -55.295   -55.242     0.053     37.16
S(6)         1.205e-002
   SO4-2          6.888e-003  1.378e-003    -2.162    -2.861    -0.699     16.65
   NaSO4-         2.654e-003  1.827e-003    -2.576    -2.738    -0.162     21.97
   CaSO4          2.279e-003  2.576e-003    -2.642    -2.589     0.053      7.50
   SrSO4          1.078e-004  1.219e-004    -3.967    -3.914     0.053     24.24
   MgSO4          8.361e-005  9.454e-005    -4.078    -4.024     0.053      5.84
   KSO4-          3.937e-005  2.710e-005    -4.405    -4.567    -0.162     (0)  
   HSO4-          5.764e-014  4.237e-014   -13.239   -13.373    -0.134     40.89
   CaHSO4+        7.285e-015  5.355e-015   -14.138   -14.271    -0.134     (0)  
   AlSO4+         3.664e-033  2.426e-033   -32.436   -32.615    -0.179     (0)  
   Al(SO4)2-      1.597e-034  1.057e-034   -33.797   -33.976    -0.179     (0)  
   AlHSO4+2       0.000e+000  0.000e+000   -45.633   -46.167    -0.535     (0)  
Si           2.009e-003
   H3SiO4-        1.240e-003  8.002e-004    -2.907    -3.097    -0.190     28.63
   H2SiO4-2       7.674e-004  1.721e-004    -3.115    -3.764    -0.649     (0)  
   H4SiO4         1.518e-006  1.716e-006    -5.819    -5.765     0.053     52.08
Sr           2.009e-003
   Sr+2           1.782e-003  4.537e-004    -2.749    -3.343    -0.594    -16.63
   SrSO4          1.078e-004  1.219e-004    -3.967    -3.914     0.053     24.24
   SrOH+          1.070e-004  7.243e-005    -3.971    -4.140    -0.169     (0)  
   SrCO3          1.153e-005  1.304e-005    -4.938    -4.885     0.053    -14.13
   SrHCO3+        3.061e-009  2.106e-009    -8.514    -8.676    -0.162     (0)  

------------------------------Saturation indices-------------------------------

	Phase               SI   log IAP   log K(298 K,   1 atm)

	Al(OH)3(a)       -6.57      4.23   10.80  Al(OH)3
	Albite           -5.76    -23.77  -18.00  NaAlSi3O8
	Alunite         -31.68    -33.08   -1.40  KAl3(SO4)2(OH)6
	Anhydrite        -0.56     -4.84   -4.28  CaSO4
	Anorthite        -5.63    -25.35  -19.71  CaAl2Si2O8
	Aragonite         2.01     -6.32   -8.34  CaCO3
	Ca-Montmorillonite -15.23    -60.26  -45.03  Ca0.165Al2.33Si3.67O10(OH)2
	Calcite           2.15     -6.32   -8.48  CaCO3
	Celestite         0.45     -6.20   -6.66  SrSO4
	CH4(g)          -53.41    -56.26   -2.84  CH4
	Chalcedony       -2.20     -5.75   -3.55  SiO2
	Chlorite(14A)    30.11     98.49   68.38  Mg5Al2Si3O10(OH)8
	Chrysotile       20.66     52.86   32.20  Mg3Si2O5(OH)4
	CO2(g)          -11.20    -12.66   -1.46  CO2
	Dolomite          2.88    -14.21  -17.09  CaMg(CO3)2
	Fix_pe            4.00      4.00    0.00  e-
	Gibbsite         -3.88      4.23    8.11  Al(OH)3
	Gypsum           -0.27     -4.85   -4.58  CaSO4:2H2O
	H2(g)           -17.05    -20.15   -3.10  H2
	H2O(g)           -1.51     -0.01    1.50  H2O
	H2S(g)          -54.19    -62.18   -7.99  H2S
	Halite           -2.71     -1.14    1.57  NaCl
	Illite          -10.93    -51.20  -40.27  K0.6Mg0.25Al2.3Si3.5O10(OH)2
	K-feldspar       -5.17    -25.74  -20.57  KAlSi3O8
	K-mica           -7.32      5.39   12.70  KAl3Si3O10(OH)2
	Kaolinite       -10.48     -3.05    7.43  Al2Si2O5(OH)4
	Neptunium(IV)hydroxide  -0.86     -0.12    0.74  Np(OH)4
	Neptunium(IV)oxide   2.58     -0.10   -2.68  NpO2
	Neptunium(IV)oxide(am)  -1.63     -0.10    1.53  NpO2
	O2(g)           -49.20    -52.09   -2.89  O2
	Quartz           -1.77     -5.75   -3.98  SiO2
	Sepiolite         9.88     25.64   15.76  Mg2Si3O7.5OH:3H2O
	Sepiolite(d)      6.98     25.64   18.66  Mg2Si3O7.5OH:3H2O
	SiO2(a)          -3.04     -5.75   -2.71  SiO2
	Strontianite      1.58     -7.69   -9.27  SrCO3
	Sulfur          -43.12    -38.24    4.88  S
	Sylvite          -4.02     -3.12    0.90  KCl
	Talc             19.97     41.36   21.40  Mg3Si4O10(OH)2


------------------
End of simulation.
------------------

------------------------------------
Reading input data for simulation 7.
------------------------------------

	USE solution 1
	EQUILIBRIUM_PHASES 1
	Fix_pe 3  O2(g)
	END
-----------------------------------------
Beginning of batch-reaction calculations.
-----------------------------------------

Reaction step 1.

Using solution 1.	Reference Backfill water
Using pure phase assemblage 1.	

-------------------------------Phase assemblage--------------------------------

                                                      Moles in assemblage
Phase               SI  log IAP  log K(T, P)   Initial       Final       Delta

Fix_pe            3.00     3.00      0.00
	 O2                 is reactant      1.000e+001  1.000e+001  2.452e-011

-----------------------------Solution composition------------------------------

	Elements           Molality       Moles

	Al               1.707e-006  1.707e-006
	C                1.004e-003  1.004e-003
	Ca               5.122e-002  5.122e-002
	Cl               4.218e-001  4.218e-001
	K                4.419e-003  4.419e-003
	Mg               5.724e-003  5.724e-003
	Na               3.716e-001  3.716e-001
	Np               1.004e-010  1.004e-010
	S                1.205e-002  1.205e-002
	Si               2.009e-003  2.009e-003
	Sr               2.009e-003  2.009e-003

----------------------------Description of solution----------------------------

                                       pH  =  12.500      Charge balance
                                       pe  =  -3.000      Adjusted to redox equilibrium
       Specific Conductance (uS/cm, 25 oC) = 48703
                          Density (g/cm3)  =   1.01833
                               Volume (L)  =   1.01086
                        Activity of water  =   0.984
                           Ionic strength  =  5.337e-001
                       Mass of water (kg)  =  1.000e+000
                 Total alkalinity (eq/kg)  =  6.714e-002
                       Total CO2 (mol/kg)  =  1.004e-003
                      Temperature (deg C)  =  25.00
                  Electrical balance (eq)  = -1.913e-002
 Percent error, 100*(Cat-|An|)/(Cat+|An|)  =  -1.98
                               Iterations  =  11
                                  Total H  = 1.110800e+002
                                  Total O  = 5.562782e+001

----------------------------Distribution of species----------------------------

                                               Log       Log       Log    mole V
   Species          Molality    Activity  Molality  Activity     Gamma   cm3/mol

   OH-            5.023e-002  3.151e-002    -1.299    -1.502    -0.203     -2.87
   H+             4.149e-013  3.162e-013   -12.382   -12.500    -0.118      0.00
   H2O            5.551e+001  9.844e-001     1.744    -0.007     0.000     18.07
Al           1.707e-006
   Al(OH)4-       1.707e-006  1.130e-006    -5.768    -5.947    -0.179     (0)  
   Al(OH)3        1.704e-013  1.926e-013   -12.769   -12.715     0.053     (0)  
   Al(OH)2+       6.102e-019  4.200e-019   -18.214   -18.377    -0.162     (0)  
   AlOH+2         7.674e-026  1.721e-026   -25.115   -25.764    -0.649    -26.61
   Al+3           6.410e-033  5.566e-034   -32.193   -33.254    -1.061    -42.59
   AlSO4+         3.664e-033  2.426e-033   -32.436   -32.615    -0.179     (0)  
   Al(SO4)2-      1.597e-034  1.057e-034   -33.797   -33.976    -0.179     (0)  
   AlHSO4+2       0.000e+000  0.000e+000   -45.633   -46.167    -0.535     (0)  
C(-4)        0.000e+000
   CH4            0.000e+000  0.000e+000   -64.309   -64.255     0.053     32.22
C(4)         1.004e-003
   CaCO3          7.030e-004  7.950e-004    -3.153    -3.100     0.053    -14.60
   CO3-2          2.007e-004  4.501e-005    -3.698    -4.347    -0.649     -0.90
   NaCO3-         7.726e-005  5.317e-005    -4.112    -4.274    -0.162      1.34
   SrCO3          1.153e-005  1.304e-005    -4.938    -4.885     0.053    -14.13
   MgCO3          1.112e-005  1.257e-005    -4.954    -4.901     0.053    -17.09
   HCO3-          4.410e-007  3.035e-007    -6.356    -6.518    -0.162     27.25
   NaHCO3         1.783e-007  2.016e-007    -6.749    -6.695     0.053     19.41
   CaHCO3+        5.787e-008  4.071e-008    -7.238    -7.390    -0.153      9.94
   SrHCO3+        3.061e-009  2.106e-009    -8.514    -8.676    -0.162     (0)  
   MgHCO3+        1.610e-009  1.039e-009    -8.793    -8.983    -0.190      5.80
   CO2            1.939e-013  2.192e-013   -12.713   -12.659     0.053     30.26
Ca           5.122e-002
   Ca+2           4.085e-002  1.051e-002    -1.389    -1.978    -0.589    -16.81
   CaOH+          7.389e-003  5.432e-003    -2.131    -2.265    -0.134     (0)  
   CaSO4          2.279e-003  2.576e-003    -2.642    -2.589     0.053      7.50
   CaCO3          7.030e-004  7.950e-004    -3.153    -3.100     0.053    -14.60
   CaHCO3+        5.787e-008  4.071e-008    -7.238    -7.390    -0.153      9.94
   CaHSO4+        7.285e-015  5.355e-015   -14.138   -14.271    -0.134     (0)  
Cl           4.218e-001
   Cl-            4.218e-001  2.723e-001    -0.375    -0.565    -0.190     18.71
H(0)         1.252e-022
   H2             6.261e-023  7.079e-023   -22.203   -22.150     0.053     28.61
K            4.419e-003
   K+             4.379e-003  2.798e-003    -2.359    -2.553    -0.194      9.58
   KSO4-          3.937e-005  2.710e-005    -4.405    -4.567    -0.162     (0)  
Mg           5.724e-003
   MgOH+          4.625e-003  3.308e-003    -2.335    -2.480    -0.146     (0)  
   Mg+2           1.005e-003  2.927e-004    -2.998    -3.534    -0.536    -20.53
   MgSO4          8.361e-005  9.454e-005    -4.078    -4.024     0.053      5.84
   MgCO3          1.112e-005  1.257e-005    -4.954    -4.901     0.053    -17.09
   MgHCO3+        1.610e-009  1.039e-009    -8.793    -8.983    -0.190      5.80
Na           3.716e-001
   Na+            3.689e-001  2.645e-001    -0.433    -0.578    -0.145     -0.67
   NaSO4-         2.654e-003  1.827e-003    -2.576    -2.738    -0.162     21.97
   NaCO3-         7.726e-005  5.317e-005    -4.112    -4.274    -0.162      1.34
   NaHCO3         1.783e-007  2.016e-007    -6.749    -6.695     0.053     19.41
   NaOH           7.369e-013  8.333e-013   -12.133   -12.079     0.053     (0)  
Np(4)        9.812e-011
   Np(OH)4        9.812e-011  1.110e-010   -10.008    -9.955     0.053     (0)  
   Np+4           0.000e+000  0.000e+000   -47.959   -50.098    -2.138     (0)  
Np(5)        2.304e-012
   NpO2(OH)2-     1.580e-012  1.162e-012   -11.801   -11.935    -0.134     (0)  
   NpO2OH         6.586e-013  7.447e-013   -12.181   -12.128     0.053     (0)  
   NpO2+          6.493e-014  4.773e-014   -13.188   -13.321    -0.134     (0)  
O(0)         0.000e+000
   O2             0.000e+000  0.000e+000   -48.147   -48.094     0.053     30.40
S(-2)        0.000e+000
   S-2            0.000e+000  0.000e+000   -57.424   -58.101    -0.677     (0)  
   HS-            0.000e+000  0.000e+000   -57.481   -57.683    -0.203     21.26
   H2S            0.000e+000  0.000e+000   -63.295   -63.242     0.053     37.16
S(6)         1.205e-002
   SO4-2          6.888e-003  1.378e-003    -2.162    -2.861    -0.699     16.65
   NaSO4-         2.654e-003  1.827e-003    -2.576    -2.738    -0.162     21.97
   CaSO4          2.279e-003  2.576e-003    -2.642    -2.589     0.053      7.50
   SrSO4          1.078e-004  1.219e-004    -3.967    -3.914     0.053     24.24
   MgSO4          8.361e-005  9.454e-005    -4.078    -4.024     0.053      5.84
   KSO4-          3.937e-005  2.710e-005    -4.405    -4.567    -0.162     (0)  
   HSO4-          5.764e-014  4.237e-014   -13.239   -13.373    -0.134     40.89
   CaHSO4+        7.285e-015  5.355e-015   -14.138   -14.271    -0.134     (0)  
   AlSO4+         3.664e-033  2.426e-033   -32.436   -32.615    -0.179     (0)  
   Al(SO4)2-      1.597e-034  1.057e-034   -33.797   -33.976    -0.179     (0)  
   AlHSO4+2       0.000e+000  0.000e+000   -45.633   -46.167    -0.535     (0)  
Si           2.009e-003
   H3SiO4-        1.240e-003  8.002e-004    -2.907    -3.097    -0.190     28.63
   H2SiO4-2       7.674e-004  1.721e-004    -3.115    -3.764    -0.649     (0)  
   H4SiO4         1.518e-006  1.716e-006    -5.819    -5.765     0.053     52.08
Sr           2.009e-003
   Sr+2           1.782e-003  4.537e-004    -2.749    -3.343    -0.594    -16.63
   SrSO4          1.078e-004  1.219e-004    -3.967    -3.914     0.053     24.24
   SrOH+          1.070e-004  7.243e-005    -3.971    -4.140    -0.169     (0)  
   SrCO3          1.153e-005  1.304e-005    -4.938    -4.885     0.053    -14.13
   SrHCO3+        3.061e-009  2.106e-009    -8.514    -8.676    -0.162     (0)  

------------------------------Saturation indices-------------------------------

	Phase               SI   log IAP   log K(298 K,   1 atm)

	Al(OH)3(a)       -6.57      4.23   10.80  Al(OH)3
	Albite           -5.76    -23.77  -18.00  NaAlSi3O8
	Alunite         -31.68    -33.08   -1.40  KAl3(SO4)2(OH)6
	Anhydrite        -0.56     -4.84   -4.28  CaSO4
	Anorthite        -5.63    -25.35  -19.71  CaAl2Si2O8
	Aragonite         2.01     -6.32   -8.34  CaCO3
	Ca-Montmorillonite -15.23    -60.26  -45.03  Ca0.165Al2.33Si3.67O10(OH)2
	Calcite           2.15     -6.32   -8.48  CaCO3
	Celestite         0.45     -6.20   -6.66  SrSO4
	CH4(g)          -61.41    -64.26   -2.84  CH4
	Chalcedony       -2.20     -5.75   -3.55  SiO2
	Chlorite(14A)    30.11     98.49   68.38  Mg5Al2Si3O10(OH)8
	Chrysotile       20.66     52.86   32.20  Mg3Si2O5(OH)4
	CO2(g)          -11.20    -12.66   -1.46  CO2
	Dolomite          2.88    -14.21  -17.09  CaMg(CO3)2
	Fix_pe            3.00      3.00    0.00  e-
	Gibbsite         -3.88      4.23    8.11  Al(OH)3
	Gypsum           -0.27     -4.85   -4.58  CaSO4:2H2O
	H2(g)           -19.05    -22.15   -3.10  H2
	H2O(g)           -1.51     -0.01    1.50  H2O
	H2S(g)          -62.19    -70.18   -7.99  H2S
	Halite           -2.71     -1.14    1.57  NaCl
	Illite          -10.93    -51.20  -40.27  K0.6Mg0.25Al2.3Si3.5O10(OH)2
	K-feldspar       -5.17    -25.74  -20.57  KAlSi3O8
	K-mica           -7.32      5.39   12.70  KAl3Si3O10(OH)2
	Kaolinite       -10.48     -3.05    7.43  Al2Si2O5(OH)4
	Neptunium(IV)hydroxide  -0.86     -0.12    0.74  Np(OH)4
	Neptunium(IV)oxide   2.57     -0.11   -2.68  NpO2
	Neptunium(IV)oxide(am)  -1.64     -0.11    1.53  NpO2
	O2(g)           -45.20    -48.09   -2.89  O2
	Quartz           -1.77     -5.75   -3.98  SiO2
	Sepiolite         9.88     25.64   15.76  Mg2Si3O7.5OH:3H2O
	Sepiolite(d)      6.98     25.64   18.66  Mg2Si3O7.5OH:3H2O
	SiO2(a)          -3.04     -5.75   -2.71  SiO2
	Strontianite      1.58     -7.69   -9.27  SrCO3
	Sulfur          -49.12    -44.24    4.88  S
	Sylvite          -4.02     -3.12    0.90  KCl
	Talc             19.97     41.36   21.40  Mg3Si4O10(OH)2


------------------
End of simulation.
------------------

------------------------------------
Reading input data for simulation 8.
------------------------------------

	USE solution 1
	EQUILIBRIUM_PHASES 1
	Fix_pe 2  O2(g)
	END
-----------------------------------------
Beginning of batch-reaction calculations.
-----------------------------------------

Reaction step 1.

Using solution 1.	Reference Backfill water
Using pure phase assemblage 1.	

-------------------------------Phase assemblage--------------------------------

                                                      Moles in assemblage
Phase               SI  log IAP  log K(T, P)   Initial       Final       Delta

Fix_pe            2.00     2.00      0.00
	 O2                 is reactant      1.000e+001  1.000e+001  2.032e-011

-----------------------------Solution composition------------------------------

	Elements           Molality       Moles

	Al               1.707e-006  1.707e-006
	C                1.004e-003  1.004e-003
	Ca               5.122e-002  5.122e-002
	Cl               4.218e-001  4.218e-001
	K                4.419e-003  4.419e-003
	Mg               5.724e-003  5.724e-003
	Na               3.716e-001  3.716e-001
	Np               1.004e-010  1.004e-010
	S                1.205e-002  1.205e-002
	Si               2.009e-003  2.009e-003
	Sr               2.009e-003  2.009e-003

----------------------------Description of solution----------------------------

                                       pH  =  12.500      Charge balance
                                       pe  =  -2.000      Adjusted to redox equilibrium
       Specific Conductance (uS/cm, 25 oC) = 48703
                          Density (g/cm3)  =   1.01833
                               Volume (L)  =   1.01086
                        Activity of water  =   0.984
                           Ionic strength  =  5.337e-001
                       Mass of water (kg)  =  1.000e+000
                 Total alkalinity (eq/kg)  =  6.714e-002
                       Total CO2 (mol/kg)  =  1.004e-003
                      Temperature (deg C)  =  25.00
                  Electrical balance (eq)  = -1.913e-002
 Percent error, 100*(Cat-|An|)/(Cat+|An|)  =  -1.98
                               Iterations  =  10
                                  Total H  = 1.110800e+002
                                  Total O  = 5.562782e+001

----------------------------Distribution of species----------------------------

                                               Log       Log       Log    mole V
   Species          Molality    Activity  Molality  Activity     Gamma   cm3/mol

   OH-            5.023e-002  3.151e-002    -1.299    -1.502    -0.203     -2.87
   H+             4.149e-013  3.162e-013   -12.382   -12.500    -0.118      0.00
   H2O            5.551e+001  9.844e-001     1.744    -0.007     0.000     18.07
Al           1.707e-006
   Al(OH)4-       1.707e-006  1.130e-006    -5.768    -5.947    -0.179     (0)  
   Al(OH)3        1.704e-013  1.926e-013   -12.769   -12.715     0.053     (0)  
   Al(OH)2+       6.102e-019  4.200e-019   -18.214   -18.377    -0.162     (0)  
   AlOH+2         7.674e-026  1.721e-026   -25.115   -25.764    -0.649    -26.61
   Al+3           6.410e-033  5.566e-034   -32.193   -33.254    -1.061    -42.59
   AlSO4+         3.664e-033  2.426e-033   -32.436   -32.615    -0.179     (0)  
   Al(SO4)2-      1.597e-034  1.057e-034   -33.797   -33.976    -0.179     (0)  
   AlHSO4+2       0.000e+000  0.000e+000   -45.633   -46.167    -0.535     (0)  
C(-4)        0.000e+000
   CH4            0.000e+000  0.000e+000   -72.309   -72.255     0.053     32.22
C(4)         1.004e-003
   CaCO3          7.030e-004  7.950e-004    -3.153    -3.100     0.053    -14.60
   CO3-2          2.007e-004  4.501e-005    -3.698    -4.347    -0.649     -0.90
   NaCO3-         7.726e-005  5.317e-005    -4.112    -4.274    -0.162      1.34
   SrCO3          1.153e-005  1.304e-005    -4.938    -4.885     0.053    -14.13
   MgCO3          1.112e-005  1.257e-005    -4.954    -4.901     0.053    -17.09
   HCO3-          4.410e-007  3.035e-007    -6.356    -6.518    -0.162     27.25
   NaHCO3         1.783e-007  2.016e-007    -6.749    -6.695     0.053     19.41
   CaHCO3+        5.787e-008  4.071e-008    -7.238    -7.390    -0.153      9.94
   SrHCO3+        3.061e-009  2.106e-009    -8.514    -8.676    -0.162     (0)  
   MgHCO3+        1.610e-009  1.039e-009    -8.793    -8.983    -0.190      5.80
   CO2            1.939e-013  2.192e-013   -12.713   -12.659     0.053     30.26
Ca           5.122e-002
   Ca+2           4.085e-002  1.051e-002    -1.389    -1.978    -0.589    -16.81
   CaOH+          7.389e-003  5.432e-003    -2.131    -2.265    -0.134     (0)  
   CaSO4          2.279e-003  2.576e-003    -2.642    -2.589     0.053      7.50
   CaCO3          7.030e-004  7.950e-004    -3.153    -3.100     0.053    -14.60
   CaHCO3+        5.787e-008  4.071e-008    -7.238    -7.390    -0.153      9.94
   CaHSO4+        7.285e-015  5.355e-015   -14.138   -14.271    -0.134     (0)  
Cl           4.218e-001
   Cl-            4.218e-001  2.723e-001    -0.375    -0.565    -0.190     18.71
H(0)         1.252e-024
   H2             6.261e-025  7.079e-025   -24.203   -24.150     0.053     28.61
K            4.419e-003
   K+             4.379e-003  2.798e-003    -2.359    -2.553    -0.194      9.58
   KSO4-          3.937e-005  2.710e-005    -4.405    -4.567    -0.162     (0)  
Mg           5.724e-003
   MgOH+          4.625e-003  3.308e-003    -2.335    -2.480    -0.146     (0)  
   Mg+2           1.005e-003  2.927e-004    -2.998    -3.534    -0.536    -20.53
   MgSO4          8.361e-005  9.454e-005    -4.078    -4.024     0.053      5.84
   MgCO3          1.112e-005  1.257e-005    -4.954    -4.901     0.053    -17.09
   MgHCO3+        1.610e-009  1.039e-009    -8.793    -8.983    -0.190      5.80
Na           3.716e-001
   Na+            3.689e-001  2.645e-001    -0.433    -0.578    -0.145     -0.67
   NaSO4-         2.654e-003  1.827e-003    -2.576    -2.738    -0.162     21.97
   NaCO3-         7.726e-005  5.317e-005    -4.112    -4.274    -0.162      1.34
   NaHCO3         1.783e-007  2.016e-007    -6.749    -6.695     0.053     19.41
   NaOH           7.369e-013  8.333e-013   -12.133   -12.079     0.053     (0)  
Np(4)        8.133e-011
   Np(OH)4        8.133e-011  9.197e-011   -10.090   -10.036     0.053     (0)  
   Np+4           0.000e+000  0.000e+000   -48.041   -50.179    -2.138     (0)  
Np(5)        1.910e-011
   NpO2(OH)2-     1.310e-011  9.630e-012   -10.883   -11.016    -0.134     (0)  
   NpO2OH         5.459e-012  6.172e-012   -11.263   -11.210     0.053     (0)  
   NpO2+          5.382e-013  3.956e-013   -12.269   -12.403    -0.134     (0)  
O(0)         0.000e+000
   O2             0.000e+000  0.000e+000   -44.147   -44.094     0.053     30.40
S(-2)        0.000e+000
   S-2            0.000e+000  0.000e+000   -65.424   -66.101    -0.677     (0)  
   HS-            0.000e+000  0.000e+000   -65.481   -65.683    -0.203     21.26
   H2S            0.000e+000  0.000e+000   -71.295   -71.242     0.053     37.16
S(6)         1.205e-002
   SO4-2          6.888e-003  1.378e-003    -2.162    -2.861    -0.699     16.65
   NaSO4-         2.654e-003  1.827e-003    -2.576    -2.738    -0.162     21.97
   CaSO4          2.279e-003  2.576e-003    -2.642    -2.589     0.053      7.50
   SrSO4          1.078e-004  1.219e-004    -3.967    -3.914     0.053     24.24
   MgSO4          8.361e-005  9.454e-005    -4.078    -4.024     0.053      5.84
   KSO4-          3.937e-005  2.710e-005    -4.405    -4.567    -0.162     (0)  
   HSO4-          5.764e-014  4.237e-014   -13.239   -13.373    -0.134     40.89
   CaHSO4+        7.285e-015  5.355e-015   -14.138   -14.271    -0.134     (0)  
   AlSO4+         3.664e-033  2.426e-033   -32.436   -32.615    -0.179     (0)  
   Al(SO4)2-      1.597e-034  1.057e-034   -33.797   -33.976    -0.179     (0)  
   AlHSO4+2       0.000e+000  0.000e+000   -45.633   -46.167    -0.535     (0)  
Si           2.009e-003
   H3SiO4-        1.240e-003  8.002e-004    -2.907    -3.097    -0.190     28.63
   H2SiO4-2       7.674e-004  1.721e-004    -3.115    -3.764    -0.649     (0)  
   H4SiO4         1.518e-006  1.716e-006    -5.819    -5.765     0.053     52.08
Sr           2.009e-003
   Sr+2           1.782e-003  4.537e-004    -2.749    -3.343    -0.594    -16.63
   SrSO4          1.078e-004  1.219e-004    -3.967    -3.914     0.053     24.24
   SrOH+          1.070e-004  7.243e-005    -3.971    -4.140    -0.169     (0)  
   SrCO3          1.153e-005  1.304e-005    -4.938    -4.885     0.053    -14.13
   SrHCO3+        3.061e-009  2.106e-009    -8.514    -8.676    -0.162     (0)  

------------------------------Saturation indices-------------------------------

	Phase               SI   log IAP   log K(298 K,   1 atm)

	Al(OH)3(a)       -6.57      4.23   10.80  Al(OH)3
	Albite           -5.76    -23.77  -18.00  NaAlSi3O8
	Alunite         -31.68    -33.08   -1.40  KAl3(SO4)2(OH)6
	Anhydrite        -0.56     -4.84   -4.28  CaSO4
	Anorthite        -5.63    -25.35  -19.71  CaAl2Si2O8
	Aragonite         2.01     -6.32   -8.34  CaCO3
	Ca-Montmorillonite -15.23    -60.26  -45.03  Ca0.165Al2.33Si3.67O10(OH)2
	Calcite           2.15     -6.32   -8.48  CaCO3
	Celestite         0.45     -6.20   -6.66  SrSO4
	CH4(g)          -69.41    -72.26   -2.84  CH4
	Chalcedony       -2.20     -5.75   -3.55  SiO2
	Chlorite(14A)    30.11     98.49   68.38  Mg5Al2Si3O10(OH)8
	Chrysotile       20.66     52.86   32.20  Mg3Si2O5(OH)4
	CO2(g)          -11.20    -12.66   -1.46  CO2
	Dolomite          2.88    -14.21  -17.09  CaMg(CO3)2
	Fix_pe            2.00      2.00    0.00  e-
	Gibbsite         -3.88      4.23    8.11  Al(OH)3
	Gypsum           -0.27     -4.85   -4.58  CaSO4:2H2O
	H2(g)           -21.05    -24.15   -3.10  H2
	H2O(g)           -1.51     -0.01    1.50  H2O
	H2S(g)          -70.19    -78.18   -7.99  H2S
	Halite           -2.71     -1.14    1.57  NaCl
	Illite          -10.93    -51.20  -40.27  K0.6Mg0.25Al2.3Si3.5O10(OH)2
	K-feldspar       -5.17    -25.74  -20.57  KAlSi3O8
	K-mica           -7.32      5.39   12.70  KAl3Si3O10(OH)2
	Kaolinite       -10.48     -3.05    7.43  Al2Si2O5(OH)4
	Neptunium(IV)hydroxide  -0.95     -0.21    0.74  Np(OH)4
	Neptunium(IV)oxide   2.49     -0.19   -2.68  NpO2
	Neptunium(IV)oxide(am)  -1.72     -0.19    1.53  NpO2
	O2(g)           -41.20    -44.09   -2.89  O2
	Quartz           -1.77     -5.75   -3.98  SiO2
	Sepiolite         9.88     25.64   15.76  Mg2Si3O7.5OH:3H2O
	Sepiolite(d)      6.98     25.64   18.66  Mg2Si3O7.5OH:3H2O
	SiO2(a)          -3.04     -5.75   -2.71  SiO2
	Strontianite      1.58     -7.69   -9.27  SrCO3
	Sulfur          -55.12    -50.24    4.88  S
	Sylvite          -4.02     -3.12    0.90  KCl
	Talc             19.97     41.36   21.40  Mg3Si4O10(OH)2


------------------
End of simulation.
------------------

------------------------------------
Reading input data for simulation 9.
------------------------------------

	USE solution 1
	EQUILIBRIUM_PHASES 1
	Fix_pe 1  O2(g)
	END
-----------------------------------------
[...]

                                               Log       Log       Log    mole V
   Species          Molality    Activity  Molality  Activity     Gamma   cm3/mol

   OH-            5.023e-002  3.151e-002    -1.299    -1.502    -0.203     -2.87
   H+             4.149e-013  3.162e-013   -12.382   -12.500    -0.118      0.00
   H2O            5.551e+001  9.844e-001     1.744    -0.007     0.000     18.07
Al           1.707e-006
   Al(OH)4-       1.707e-006  1.130e-006    -5.768    -5.947    -0.179     (0)  
   Al(OH)3        1.704e-013  1.926e-013   -12.769   -12.715     0.053     (0)  
   Al(OH)2+       6.102e-019  4.200e-019   -18.214   -18.377    -0.162     (0)  
   AlOH+2         7.674e-026  1.721e-026   -25.115   -25.764    -0.649    -26.61
   Al+3           6.410e-033  5.566e-034   -32.193   -33.254    -1.061    -42.59
   AlSO4+         3.664e-033  2.426e-033   -32.436   -32.615    -0.179     (0)  
   Al(SO4)2-      1.597e-034  1.057e-034   -33.797   -33.976    -0.179     (0)  
   AlHSO4+2       0.000e+000  0.000e+000   -45.633   -46.167    -0.535     (0)  
C(-4)        0.000e+000
   CH4            0.000e+000  0.000e+000  -104.309  -104.255     0.053     32.22
C(4)         1.004e-003
   CaCO3          7.030e-004  7.950e-004    -3.153    -3.100     0.053    -14.60
   CO3-2          2.007e-004  4.501e-005    -3.698    -4.347    -0.649     -0.90
   NaCO3-         7.726e-005  5.317e-005    -4.112    -4.274    -0.162      1.34
   SrCO3          1.153e-005  1.304e-005    -4.938    -4.885     0.053    -14.13
   MgCO3          1.112e-005  1.257e-005    -4.954    -4.901     0.053    -17.09
   HCO3-          4.410e-007  3.035e-007    -6.356    -6.518    -0.162     27.25
   NaHCO3         1.783e-007  2.016e-007    -6.749    -6.695     0.053     19.41
   CaHCO3+        5.787e-008  4.071e-008    -7.238    -7.390    -0.153      9.94
   SrHCO3+        3.061e-009  2.106e-009    -8.514    -8.676    -0.162     (0)  
   MgHCO3+        1.610e-009  1.039e-009    -8.793    -8.983    -0.190      5.80
   CO2            1.939e-013  2.192e-013   -12.713   -12.659     0.053     30.26
Ca           5.122e-002
   Ca+2           4.085e-002  1.051e-002    -1.389    -1.978    -0.589    -16.81
   CaOH+          7.389e-003  5.432e-003    -2.131    -2.265    -0.134     (0)  
   CaSO4          2.279e-003  2.576e-003    -2.642    -2.589     0.053      7.50
   CaCO3          7.030e-004  7.950e-004    -3.153    -3.100     0.053    -14.60
   CaHCO3+        5.787e-008  4.071e-008    -7.238    -7.390    -0.153      9.94
   CaHSO4+        7.285e-015  5.355e-015   -14.138   -14.271    -0.134     (0)  
Cl           4.218e-001
   Cl-            4.218e-001  2.723e-001    -0.375    -0.565    -0.190     18.71
H(0)         1.252e-032
   H2             6.261e-033  7.079e-033   -32.203   -32.150     0.053     28.61
K            4.419e-003
   K+             4.379e-003  2.798e-003    -2.359    -2.553    -0.194      9.58
   KSO4-          3.937e-005  2.710e-005    -4.405    -4.567    -0.162     (0)  
Mg           5.724e-003
   MgOH+          4.625e-003  3.308e-003    -2.335    -2.480    -0.146     (0)  
   Mg+2           1.005e-003  2.927e-004    -2.998    -3.534    -0.536    -20.53
   MgSO4          8.361e-005  9.454e-005    -4.078    -4.024     0.053      5.84
   MgCO3          1.112e-005  1.257e-005    -4.954    -4.901     0.053    -17.09
   MgHCO3+        1.610e-009  1.039e-009    -8.793    -8.983    -0.190      5.80
Na           3.716e-001
   Na+            3.689e-001  2.645e-001    -0.433    -0.578    -0.145     -0.67
   NaSO4-         2.654e-003  1.827e-003    -2.576    -2.738    -0.162     21.97
   NaCO3-         7.726e-005  5.317e-005    -4.112    -4.274    -0.162      1.34
   NaHCO3         1.783e-007  2.016e-007    -6.749    -6.695     0.053     19.41
   NaOH           7.369e-013  8.333e-013   -12.133   -12.079     0.053     (0)  
Np(4)        4.275e-014
   Np(OH)4        4.275e-014  4.834e-014   -13.369   -13.316     0.053     (0)  
   Np+4           0.000e+000  0.000e+000   -51.320   -53.458    -2.138     (0)  
Np(5)        1.004e-010
   NpO2(OH)2-     6.886e-011  5.062e-011   -10.162   -10.296    -0.134     (0)  
   NpO2OH         2.869e-011  3.245e-011   -10.542   -10.489     0.053     (0)  
   NpO2+          2.829e-012  2.080e-012   -11.548   -11.682    -0.134     (0)  
O(0)         1.426e-028
   O2             7.129e-029  8.061e-029   -28.147   -28.094     0.053     30.40
S(-2)        0.000e+000
   S-2            0.000e+000  0.000e+000   -97.424   -98.101    -0.677     (0)  
   HS-            0.000e+000  0.000e+000   -97.481   -97.683    -0.203     21.26
   H2S            0.000e+000  0.000e+000  -103.295  -103.242     0.053     37.16
S(6)         1.205e-002
   SO4-2          6.888e-003  1.378e-003    -2.162    -2.861    -0.699     16.65
   NaSO4-         2.654e-003  1.827e-003    -2.576    -2.738    -0.162     21.97
   CaSO4          2.279e-003  2.576e-003    -2.642    -2.589     0.053      7.50
   SrSO4          1.078e-004  1.219e-004    -3.967    -3.914     0.053     24.24
   MgSO4          8.361e-005  9.454e-005    -4.078    -4.024     0.053      5.84
   KSO4-          3.937e-005  2.710e-005    -4.405    -4.567    -0.162     (0)  
   HSO4-          5.764e-014  4.237e-014   -13.239   -13.373    -0.134     40.89
   CaHSO4+        7.285e-015  5.355e-015   -14.138   -14.271    -0.134     (0)  
   AlSO4+         3.664e-033  2.426e-033   -32.436   -32.615    -0.179     (0)  
   Al(SO4)2-      1.597e-034  1.057e-034   -33.797   -33.976    -0.179     (0)  
   AlHSO4+2       0.000e+000  0.000e+000   -45.633   -46.167    -0.535     (0)  
Si           2.009e-003
   H3SiO4-        1.240e-003  8.002e-004    -2.907    -3.097    -0.190     28.63
   H2SiO4-2       7.674e-004  1.721e-004    -3.115    -3.764    -0.649     (0)  
   H4SiO4         1.518e-006  1.716e-006    -5.819    -5.765     0.053     52.08
Sr           2.009e-003
   Sr+2           1.782e-003  4.537e-004    -2.749    -3.343    -0.594    -16.63
   SrSO4          1.078e-004  1.219e-004    -3.967    -3.914     0.053     24.24
   SrOH+          1.070e-004  7.243e-005    -3.971    -4.140    -0.169     (0)  
   SrCO3          1.153e-005  1.304e-005    -4.938    -4.885     0.053    -14.13
   SrHCO3+        3.061e-009  2.106e-009    -8.514    -8.676    -0.162     (0)  

------------------------------Saturation indices-------------------------------

	Phase               SI   log IAP   log K(298 K,   1 atm)

	Al(OH)3(a)       -6.57      4.23   10.80  Al(OH)3
	Albite           -5.76    -23.77  -18.00  NaAlSi3O8
	Alunite         -31.68    -33.08   -1.40  KAl3(SO4)2(OH)6
	Anhydrite        -0.56     -4.84   -4.28  CaSO4
	Anorthite        -5.63    -25.35  -19.71  CaAl2Si2O8
	Aragonite         2.01     -6.32   -8.34  CaCO3
	Ca-Montmorillonite -15.23    -60.26  -45.03  Ca0.165Al2.33Si3.67O10(OH)2
	Calcite           2.15     -6.32   -8.48  CaCO3
	Celestite         0.45     -6.20   -6.66  SrSO4
	CH4(g)         -101.41   -104.26   -2.84  CH4
	Chalcedony       -2.20     -5.75   -3.55  SiO2
	Chlorite(14A)    30.11     98.49   68.38  Mg5Al2Si3O10(OH)8
	Chrysotile       20.66     52.86   32.20  Mg3Si2O5(OH)4
	CO2(g)          -11.20    -12.66   -1.46  CO2
	Dolomite          2.88    -14.21  -17.09  CaMg(CO3)2
	Fix_pe           -2.00     -2.00    0.00  e-
	Gibbsite         -3.88      4.23    8.11  Al(OH)3
	Gypsum           -0.27     -4.85   -4.58  CaSO4:2H2O
	H2(g)           -29.05    -32.15   -3.10  H2
	H2O(g)           -1.51     -0.01    1.50  H2O
	H2S(g)         -102.19   -110.18   -7.99  H2S
	Halite           -2.71     -1.14    1.57  NaCl
	Illite          -10.93    -51.20  -40.27  K0.6Mg0.25Al2.3Si3.5O10(OH)2
	K-feldspar       -5.17    -25.74  -20.57  KAlSi3O8
	K-mica           -7.32      5.39   12.70  KAl3Si3O10(OH)2
	Kaolinite       -10.48     -3.05    7.43  Al2Si2O5(OH)4
	Neptunium(IV)hydroxide  -4.23     -3.49    0.74  Np(OH)4
	Neptunium(IV)oxide  -0.79     -3.47   -2.68  NpO2
	Neptunium(IV)oxide(am)  -5.00     -3.47    1.53  NpO2
	O2(g)           -25.20    -28.09   -2.89  O2
	Quartz           -1.77     -5.75   -3.98  SiO2
	Sepiolite         9.88     25.64   15.76  Mg2Si3O7.5OH:3H2O
	Sepiolite(d)      6.98     25.64   18.66  Mg2Si3O7.5OH:3H2O
	SiO2(a)          -3.04     -5.75   -2.71  SiO2
	Strontianite      1.58     -7.69   -9.27  SrCO3
	Sulfur          -79.12    -74.24    4.88  S
	Sylvite          -4.02     -3.12    0.90  KCl
	Talc             19.97     41.36   21.40  Mg3Si4O10(OH)2


------------------
End of simulation.
------------------

-------------------------------------
Reading input data for simulation 13.
-------------------------------------

	USE solution 1
	EQUILIBRIUM_PHASES 1
	Fix_pe -3  O2(g)
	END
-----------------------------------------
Beginning of batch-reaction calculations.
-----------------------------------------

Reaction step 1.

Using solution 1.	Reference Backfill water
Using pure phase assemblage 1.	

-------------------------------Phase assemblage--------------------------------

                                                      Moles in assemblage
Phase               SI  log IAP  log K(T, P)   Initial       Final       Delta

Fix_pe           -3.00    -3.00      0.00
	 O2                 is reactant      1.000e+001  1.000e+001 -8.882e-015

-----------------------------Solution composition------------------------------

	Elements           Molality       Moles

	Al               1.707e-006  1.707e-006
	C                1.004e-003  1.004e-003
	Ca               5.122e-002  5.122e-002
	Cl               4.218e-001  4.218e-001
	K                4.419e-003  4.419e-003
	Mg               5.724e-003  5.724e-003
	Na               3.716e-001  3.716e-001
	Np               1.004e-010  1.004e-010
	S                1.205e-002  1.205e-002
	Si               2.009e-003  2.009e-003
	Sr               2.009e-003  2.009e-003

----------------------------Description of solution----------------------------

                                       pH  =  12.500      Charge balance
                                       pe  =   3.000      Adjusted to redox equilibrium
       Specific Conductance (uS/cm, 25 oC) = 48703
                          Density (g/cm3)  =   1.01833
                               Volume (L)  =   1.01086
                        Activity of water  =   0.984
                           Ionic strength  =  5.337e-001
                       Mass of water (kg)  =  1.000e+000
                 Total alkalinity (eq/kg)  =  6.714e-002
                       Total CO2 (mol/kg)  =  1.004e-003
                      Temperature (deg C)  =  25.00
                  Electrical balance (eq)  = -1.913e-002
 Percent error, 100*(Cat-|An|)/(Cat+|An|)  =  -1.98
                               Iterations  =   5
                                  Total H  = 1.110800e+002
                                  Total O  = 5.562782e+001

----------------------------Distribution of species----------------------------

                                               Log       Log       Log    mole V
   Species          Molality    Activity  Molality  Activity     Gamma   cm3/mol

   OH-            5.023e-002  3.151e-002    -1.299    -1.502    -0.203     -2.87
   H+             4.149e-013  3.162e-013   -12.382   -12.500    -0.118      0.00
   H2O            5.551e+001  9.844e-001     1.744    -0.007     0.000     18.07
Al           1.707e-006
   Al(OH)4-       1.707e-006  1.130e-006    -5.768    -5.947    -0.179     (0)  
   Al(OH)3        1.704e-013  1.926e-013   -12.769   -12.715     0.053     (0)  
   Al(OH)2+       6.102e-019  4.200e-019   -18.214   -18.377    -0.162     (0)  
   AlOH+2         7.674e-026  1.721e-026   -25.115   -25.764    -0.649    -26.61
   Al+3           6.410e-033  5.566e-034   -32.193   -33.254    -1.061    -42.59
   AlSO4+         3.664e-033  2.426e-033   -32.436   -32.615    -0.179     (0)  
   Al(SO4)2-      1.597e-034  1.057e-034   -33.797   -33.976    -0.179     (0)  
   AlHSO4+2       0.000e+000  0.000e+000   -45.633   -46.167    -0.535     (0)  
C(-4)        0.000e+000
   CH4            0.000e+000  0.000e+000  -112.309  -112.255     0.053     32.22
C(4)         1.004e-003
   CaCO3          7.030e-004  7.950e-004    -3.153    -3.100     0.053    -14.60
   CO3-2          2.007e-004  4.501e-005    -3.698    -4.347    -0.649     -0.90
   NaCO3-         7.726e-005  5.317e-005    -4.112    -4.274    -0.162      1.34
   SrCO3          1.153e-005  1.304e-005    -4.938    -4.885     0.053    -14.13
   MgCO3          1.112e-005  1.257e-005    -4.954    -4.901     0.053    -17.09
   HCO3-          4.410e-007  3.035e-007    -6.356    -6.518    -0.162     27.25
   NaHCO3         1.783e-007  2.016e-007    -6.749    -6.695     0.053     19.41
   CaHCO3+        5.787e-008  4.071e-008    -7.238    -7.390    -0.153      9.94
   SrHCO3+        3.061e-009  2.106e-009    -8.514    -8.676    -0.162     (0)  
   MgHCO3+        1.610e-009  1.039e-009    -8.793    -8.983    -0.190      5.80
   CO2            1.939e-013  2.192e-013   -12.713   -12.659     0.053     30.26
Ca           5.122e-002
   Ca+2           4.085e-002  1.051e-002    -1.389    -1.978    -0.589    -16.81
   CaOH+          7.389e-003  5.432e-003    -2.131    -2.265    -0.134     (0)  
   CaSO4          2.279e-003  2.576e-003    -2.642    -2.589     0.053      7.50
   CaCO3          7.030e-004  7.950e-004    -3.153    -3.100     0.053    -14.60
   CaHCO3+        5.787e-008  4.071e-008    -7.238    -7.390    -0.153      9.94
   CaHSO4+        7.285e-015  5.355e-015   -14.138   -14.271    -0.134     (0)  
Cl           4.218e-001
   Cl-            4.218e-001  2.723e-001    -0.375    -0.565    -0.190     18.71
H(0)         1.252e-034
   H2             6.261e-035  7.079e-035   -34.203   -34.150     0.053     28.61
K            4.419e-003
   K+             4.379e-003  2.798e-003    -2.359    -2.553    -0.194      9.58
   KSO4-          3.937e-005  2.710e-005    -4.405    -4.567    -0.162     (0)  
Mg           5.724e-003
   MgOH+          4.625e-003  3.308e-003    -2.335    -2.480    -0.146     (0)  
   Mg+2           1.005e-003  2.927e-004    -2.998    -3.534    -0.536    -20.53
   MgSO4          8.361e-005  9.454e-005    -4.078    -4.024     0.053      5.84
   MgCO3          1.112e-005  1.257e-005    -4.954    -4.901     0.053    -17.09
   MgHCO3+        1.610e-009  1.039e-009    -8.793    -8.983    -0.190      5.80
Na           3.716e-001
   Na+            3.689e-001  2.645e-001    -0.433    -0.578    -0.145     -0.67
   NaSO4-         2.654e-003  1.827e-003    -2.576    -2.738    -0.162     21.97
   NaCO3-         7.726e-005  5.317e-005    -4.112    -4.274    -0.162      1.34
   NaHCO3         1.783e-007  2.016e-007    -6.749    -6.695     0.053     19.41
   NaOH           7.369e-013  8.333e-013   -12.133   -12.079     0.053     (0)  
Np(4)        4.277e-015
   Np(OH)4        4.277e-015  4.836e-015   -14.369   -14.315     0.053     (0)  
   Np+4           0.000e+000  0.000e+000   -52.320   -54.458    -2.138     (0)  
Np(5)        1.004e-010
   NpO2(OH)2-     6.889e-011  5.064e-011   -10.162   -10.295    -0.134     (0)  
   NpO2OH         2.870e-011  3.246e-011   -10.542   -10.489     0.053     (0)  
   NpO2+          2.830e-012  2.080e-012   -11.548   -11.682    -0.134     (0)  
O(0)         1.426e-024
   O2             7.129e-025  8.061e-025   -24.147   -24.094     0.053     30.40
S(-2)        0.000e+000
   S-2            0.000e+000  0.000e+000  -105.424  -106.101    -0.677     (0)  
   HS-            0.000e+000  0.000e+000  -105.481  -105.683    -0.203     21.26
   H2S            0.000e+000  0.000e+000  -111.295  -111.242     0.053     37.16
S(6)         1.205e-002
   SO4-2          6.888e-003  1.378e-003    -2.162    -2.861    -0.699     16.65
   NaSO4-         2.654e-003  1.827e-003    -2.576    -2.738    -0.162     21.97
   CaSO4          2.279e-003  2.576e-003    -2.642    -2.589     0.053      7.50
   SrSO4          1.078e-004  1.219e-004    -3.967    -3.914     0.053     24.24
   MgSO4          8.361e-005  9.454e-005    -4.078    -4.024     0.053      5.84
   KSO4-          3.937e-005  2.710e-005    -4.405    -4.567    -0.162     (0)  
   HSO4-          5.764e-014  4.237e-014   -13.239   -13.373    -0.134     40.89
   CaHSO4+        7.285e-015  5.355e-015   -14.138   -14.271    -0.134     (0)  
   AlSO4+         3.664e-033  2.426e-033   -32.436   -32.615    -0.179     (0)  
   Al(SO4)2-      1.597e-034  1.057e-034   -33.797   -33.976    -0.179     (0)  
   AlHSO4+2       0.000e+000  0.000e+000   -45.633   -46.167    -0.535     (0)  
Si           2.009e-003
   H3SiO4-        1.240e-003  8.002e-004    -2.907    -3.097    -0.190     28.63
   H2SiO4-2       7.674e-004  1.721e-004    -3.115    -3.764    -0.649     (0)  
   H4SiO4         1.518e-006  1.716e-006    -5.819    -5.765     0.053     52.08
Sr           2.009e-003
   Sr+2           1.782e-003  4.537e-004    -2.749    -3.343    -0.594    -16.63
   SrSO4          1.078e-004  1.219e-004    -3.967    -3.914     0.053     24.24
   SrOH+          1.070e-004  7.243e-005    -3.971    -4.140    -0.169     (0)  
   SrCO3          1.153e-005  1.304e-005    -4.938    -4.885     0.053    -14.13
   SrHCO3+        3.061e-009  2.106e-009    -8.514    -8.676    -0.162     (0)  

------------------------------Saturation indices-------------------------------

	Phase               SI   log IAP   log K(298 K,   1 atm)

	Al(OH)3(a)       -6.57      4.23   10.80  Al(OH)3
	Albite           -5.76    -23.77  -18.00  NaAlSi3O8
	Alunite         -31.68    -33.08   -1.40  KAl3(SO4)2(OH)6
	Anhydrite        -0.56     -4.84   -4.28  CaSO4
	Anorthite        -5.63    -25.35  -19.71  CaAl2Si2O8
	Aragonite         2.01     -6.32   -8.34  CaCO3
	Ca-Montmorillonite -15.23    -60.26  -45.03  Ca0.165Al2.33Si3.67O10(OH)2
	Calcite           2.15     -6.32   -8.48  CaCO3
	Celestite         0.45     -6.20   -6.66  SrSO4
	CH4(g)         -109.41   -112.26   -2.84  CH4
	Chalcedony       -2.20     -5.75   -3.55  SiO2
	Chlorite(14A)    30.11     98.49   68.38  Mg5Al2Si3O10(OH)8
	Chrysotile       20.66     52.86   32.20  Mg3Si2O5(OH)4
	CO2(g)          -11.20    -12.66   -1.46  CO2
	Dolomite          2.88    -14.21  -17.09  CaMg(CO3)2
	Fix_pe           -3.00     -3.00    0.00  e-
	Gibbsite         -3.88      4.23    8.11  Al(OH)3
	Gypsum           -0.27     -4.85   -4.58  CaSO4:2H2O
	H2(g)           -31.05    -34.15   -3.10  H2
	H2O(g)           -1.51     -0.01    1.50  H2O
	H2S(g)         -110.19   -118.18   -7.99  H2S
	Halite           -2.71     -1.14    1.57  NaCl
	Illite          -10.93    -51.20  -40.27  K0.6Mg0.25Al2.3Si3.5O10(OH)2
	K-feldspar       -5.17    -25.74  -20.57  KAlSi3O8
	K-mica           -7.32      5.39   12.70  KAl3Si3O10(OH)2
	Kaolinite       -10.48     -3.05    7.43  Al2Si2O5(OH)4
	Neptunium(IV)hydroxide  -5.23     -4.49    0.74  Np(OH)4
	Neptunium(IV)oxide  -1.79     -4.47   -2.68  NpO2
	Neptunium(IV)oxide(am)  -6.00     -4.47    1.53  NpO2
	O2(g)           -21.20    -24.09   -2.89  O2
	Quartz           -1.77     -5.75   -3.98  SiO2
	Sepiolite         9.88     25.64   15.76  Mg2Si3O7.5OH:3H2O
	Sepiolite(d)      6.98     25.64   18.66  Mg2Si3O7.5OH:3H2O
	SiO2(a)          -3.04     -5.75   -2.71  SiO2
	Strontianite      1.58     -7.69   -9.27  SrCO3
	Sulfur          -85.12    -80.24    4.88  S
	Sylvite          -4.02     -3.12    0.90  KCl
	Talc             19.97     41.36   21.40  Mg3Si4O10(OH)2


------------------
End of simulation.
------------------

-------------------------------------
Reading input data for simulation 14.
-------------------------------------

-------------------------------
End of Run after 0.031 Seconds.
-------------------------------

