WARNING: Database file from DATABASE keyword is used; command line argument ignored.
   Input file: gas_fix_V
  Output file: gas_fix_V.out
Database file: ../database/phreeqc.dat

------------------
Reading data base.
------------------

	SOLUTION_MASTER_SPECIES
	SOLUTION_SPECIES
	PHASES
	EXCHANGE_MASTER_SPECIES
	EXCHANGE_SPECIES
	SURFACE_MASTER_SPECIES
	SURFACE_SPECIES
	RATES
	END
------------------------------------
Reading input data for simulation 1.
------------------------------------

	DATABASE ../database/phreeqc.dat
	SOLUTION 1
	GAS_PHASE 6
	    fixed_volume
	    N2(g) 200
	    CO2(g) 0
	    H2O(g) 0
	    CH4(g) 200
	REACTION
	 CO2 1
	 6 4 2
	INCREMENTAL_REACTIONS true
	END
-------------------------------------------
Beginning of initial solution calculations.
-------------------------------------------

Initial solution 1.	

-----------------------------Solution composition------------------------------

	Elements           Molality       Moles

	Pure water     

----------------------------Description of solution----------------------------

                                       pH  =   7.000    
                                       pe  =   4.000    
       Specific Conductance (uS/cm, 25 oC) = 0
                          Density (g/cm3)  =   0.99704
                               Volume (L)  =   1.00297
                        Activity of water  =   1.000
                           Ionic strength  =  1.007e-007
                       Mass of water (kg)  =  1.000e+000
                 Total alkalinity (eq/kg)  =  1.217e-009
                    Total carbon (mol/kg)  =  0.000e+000
                       Total CO2 (mol/kg)  =  0.000e+000
                      Temperature (deg C)  =  25.00
                  Electrical balance (eq)  = -1.217e-009
 Percent error, 100*(Cat-|An|)/(Cat+|An|)  =  -0.60
                               Iterations  =   0
                                  Total H  = 1.110124e+002
                                  Total O  = 5.550622e+001

----------------------------Distribution of species----------------------------

                                               Log       Log       Log    mole V
   Species          Molality    Activity  Molality  Activity     Gamma   cm3/mol

   OH-            1.013e-007  1.012e-007    -6.995    -6.995    -0.000     -4.14
   H+             1.001e-007  1.000e-007    -7.000    -7.000    -0.000      0.00
   H2O            5.551e+001  1.000e+000     1.744     0.000     0.000     18.07
H(0)         1.416e-025
   H2             7.079e-026  7.079e-026   -25.150   -25.150     0.000     28.61
O(0)         0.000e+000
   O2             0.000e+000  0.000e+000   -42.080   -42.080     0.000     30.40

------------------------------Saturation indices-------------------------------

	Phase               SI   log IAP   log K(298 K,   1 atm)

	H2(g)           -22.05    -25.15   -3.10  H2
	H2O(g)           -1.50      0.00    1.50  H2O
	O2(g)           -39.19    -42.08   -2.89  O2


-----------------------------------------
Beginning of batch-reaction calculations.
-----------------------------------------

Reaction step 1.

WARNING: Numerical method failed, switching to numerical derivatives.
WARNING: Maximum iterations exceeded, 100

WARNING: Numerical method failed with this set of convergence parameters.

WARNING: Trying smaller step size, pe step size 10, 5 ... 

Using solution 1.	
Using gas phase 6.	
Using reaction 1.	

Reaction 1.	

	 6.000e+000 moles of the following reaction have been added:

	                 Relative
	Reactant            moles

	CO2                  1.00000

	                 Relative
	Element             moles
	C                    1.00000
	O                    2.00000

-----------------------------------Gas phase-----------------------------------

Total pressure: 525.88      atmospheres          (Peng-Robinson calculation)
    Gas volume:  1.00e+000 liters
  Molar volume:  5.19e-002 liters/mole
   P * Vm / RT:  1.11571  (Compressibility Factor Z) 

                                                        Moles in gas
                                            ----------------------------------
Component         log P           P    phi     Initial       Final       Delta

CH4(g)             2.29  1.951e+002  0.667  7.476e+000  7.148e+000 -3.288e-001
CO2(g)             2.14  1.376e+002  0.266  0.000e+000  5.040e+000  5.040e+000
H2O(g)            -0.66  2.211e-001  0.200  0.000e+000  8.100e-003  8.100e-003
N2(g)              2.29  1.930e+002  1.273  7.476e+000  7.069e+000 -4.071e-001

-----------------------------Solution composition------------------------------

	Elements           Molality       Moles

	C                1.316e+000  1.288e+000
	N                8.318e-001  8.142e-001

----------------------------Description of solution----------------------------

                                       pH  =   6.030      Charge balance
                                       pe  =  -2.914      Adjusted to redox equilibrium
       Specific Conductance (uS/cm, 25 oC) = 53852
                          Density (g/cm3)  =   1.04501
                               Volume (L)  =   1.07359
                        Activity of water  =   0.965
                           Ionic strength  =  6.824e-001
                       Mass of water (kg)  =  9.788e-001
                 Total alkalinity (eq/kg)  =  6.824e-001
                       Total CO2 (mol/kg)  =  1.236e+000
                      Temperature (deg C)  =  25.00
                           Pressure (atm)  = 525.88
                  Electrical balance (eq)  = -2.427e-009
 Percent error, 100*(Cat-|An|)/(Cat+|An|)  =  -0.00
                               Iterations  =  62
                                  Total H  = 1.123113e+002
                                  Total O  = 5.741751e+001

----------------------------Distribution of species----------------------------

                                               Log       Log       Log    mole V
   Species          Molality    Activity  Molality  Activity     Gamma   cm3/mol

   H+             1.229e-006  9.338e-007    -5.910    -6.030    -0.119      0.00
   OH-            2.538e-008  1.561e-008    -7.596    -7.807    -0.211     -1.02
   H2O            5.551e+001  9.648e-001     1.744    -0.016     0.000     17.67
C(-4)        7.998e-002
   CH4            7.998e-002  9.359e-002    -1.097    -1.029     0.068     32.22
C(4)         1.236e+000
   HCO3-          6.819e-001  4.644e-001    -0.166    -0.333    -0.167     28.31
   CO2            5.543e-001  6.487e-001    -0.256    -0.188     0.068     31.31
   CO3-2          1.861e-004  4.003e-005    -3.730    -4.398    -0.667      3.13
H(0)         3.865e-010
   H2             1.932e-010  2.261e-010    -9.714    -9.646     0.068     28.39
N(-3)        6.824e-001
   NH4+           6.822e-001  3.881e-001    -0.166    -0.411    -0.245     19.20
   NH3            1.795e-004  2.100e-004    -3.746    -3.678     0.068     24.81
N(0)         1.494e-001
   N2             7.472e-002  8.743e-002    -1.127    -1.058     0.068     29.29
N(3)         0.000e+000
   NO2-           0.000e+000  0.000e+000   -59.700   -59.926    -0.227     25.55
N(5)         0.000e+000
   NO3-           0.000e+000  0.000e+000   -81.928   -82.155    -0.227     29.71
O(0)         0.000e+000
   O2             0.000e+000  0.000e+000   -73.665   -73.597     0.068     29.73

------------------------------Saturation indices-------------------------------

	Phase               SI   log IAP   log K(298 K, 526 atm)

	CH4(g)            2.11     -1.03   -3.14  CH4	 Pressure 195.1 atm, phi 0.667.
	CO2(g)            1.90     -0.19   -2.09  CO2	 Pressure 137.6 atm, phi 0.266.
	H2(g)            -6.54     -9.65   -3.10  H2
	H2O(g)           -1.35     -0.02    1.34  H2O	 Pressure   0.2 atm, phi 0.200.
	N2(g)             2.39     -1.06   -3.45  N2	 Pressure 193.0 atm, phi 1.273.
	NH3(g)           -5.34     -3.68    1.66  NH3
	O2(g)           -70.38    -73.60   -3.22  O2


Reaction step 2.

Using solution 1.	
Using gas phase 6.	
Using reaction 1.	

Reaction 1.	

	 4.000e+000 moles of the following reaction have been added:

	                 Relative
	Reactant            moles

	CO2                  1.00000

	                 Relative
	Element             moles
	C                    1.00000
	O                    2.00000

-----------------------------------Gas phase-----------------------------------

Total pressure: 735.72      atmospheres          (Peng-Robinson calculation)
    Gas volume:  1.00e+000 liters
  Molar volume:  4.38e-002 liters/mole
   P * Vm / RT:  1.31806  (Compressibility Factor Z) 

                                                        Moles in gas
                                            ----------------------------------
Component         log P           P    phi     Initial       Final       Delta

CH4(g)             2.36  2.284e+002  0.735  7.148e+000  7.083e+000 -6.482e-002
CO2(g)             2.45  2.821e+002  0.239  5.040e+000  8.748e+000  3.708e+000
H2O(g)            -0.38  4.186e-001  0.121  8.100e-003  1.298e-002  4.880e-003
N2(g)              2.35  2.248e+002  1.576  7.069e+000  6.971e+000 -9.853e-002

-----------------------------Solution composition------------------------------

	Elements           Molality       Moles

	C                1.692e+000  1.646e+000
	N                1.040e+000  1.011e+000

----------------------------Description of solution----------------------------

                                       pH  =   5.927      Charge balance
                                       pe  =  -2.807      Adjusted to redox equilibrium
       Specific Conductance (uS/cm, 25 oC) = 63965
                          Density (g/cm3)  =   1.05936
                               Volume (L)  =   1.09121
                        Activity of water  =   0.955
                           Ionic strength  =  8.794e-001
                       Mass of water (kg)  =  9.728e-001
                 Total alkalinity (eq/kg)  =  8.794e-001
                       Total CO2 (mol/kg)  =  1.617e+000
                      Temperature (deg C)  =  25.00
                           Pressure (atm)  = 735.72
                  Electrical balance (eq)  = -3.580e-009
 Percent error, 100*(Cat-|An|)/(Cat+|An|)  =  -0.00
                               Iterations  =  25
                                  Total H  = 1.125608e+002
                                  Total O  = 5.799710e+001

----------------------------Distribution of species----------------------------

                                               Log       Log       Log    mole V
   Species          Molality    Activity  Molality  Activity     Gamma   cm3/mol

   H+             1.569e-006  1.183e-006    -5.804    -5.927    -0.123      0.00
   OH-            2.322e-008  1.391e-008    -7.634    -7.857    -0.223     -0.20
   H2O            5.551e+001  9.549e-001     1.744    -0.020     0.000     17.52
C(-4)        7.484e-002
   CH4            7.484e-002  9.163e-002    -1.126    -1.038     0.088     32.22
C(4)         1.617e+000
   HCO3-          8.787e-001  5.890e-001    -0.056    -0.230    -0.174     29.28
   CO2            7.377e-001  9.033e-001    -0.132    -0.044     0.088     31.63
   CO3-2          2.404e-004  4.853e-005    -3.619    -4.314    -0.695      4.91
H(0)         2.843e-010
   H2             1.422e-010  1.741e-010    -9.847    -9.759     0.088     28.33
N(-3)        8.794e-001
   NH4+           8.792e-001  4.817e-001    -0.056    -0.317    -0.261     19.49
   NH3            1.610e-004  1.972e-004    -3.793    -3.705     0.088     24.91
N(0)         1.602e-001
   N2             8.010e-002  9.807e-002    -1.096    -1.008     0.088     29.29
N(3)         0.000e+000
   NO2-           0.000e+000  0.000e+000   -59.673   -59.913    -0.240     25.60
N(5)         0.000e+000
   NO3-           0.000e+000  0.000e+000   -81.847   -82.087    -0.240     29.62
O(0)         0.000e+000
   O2             0.000e+000  0.000e+000   -73.656   -73.568     0.088     29.52

------------------------------Saturation indices-------------------------------

	Phase               SI   log IAP   log K(298 K, 736 atm)

	CH4(g)            2.23     -1.04   -3.26  CH4	 Pressure 228.4 atm, phi 0.735.
	CO2(g)            2.29     -0.04   -2.34  CO2	 Pressure 282.1 atm, phi 0.239.
	H2(g)            -6.66     -9.76   -3.10  H2
	H2O(g)           -1.29     -0.02    1.27  H2O	 Pressure   0.4 atm, phi 0.121.
	N2(g)             2.55     -1.01   -3.56  N2	 Pressure 224.8 atm, phi 1.576.
	NH3(g)           -5.31     -3.71    1.61  NH3
	O2(g)           -70.22    -73.57   -3.35  O2


Reaction step 3.

Using solution 1.	
Using gas phase 6.	
Using reaction 1.	

Reaction 1.	

	 2.000e+000 moles of the following reaction have been added:

	                 Relative
	Reactant            moles

	CO2                  1.00000

	                 Relative
	Element             moles
	C                    1.00000
	O                    2.00000

-----------------------------------Gas phase-----------------------------------

Total pressure: 905.14      atmospheres          (Peng-Robinson calculation)
    Gas volume:  1.00e+000 liters
  Molar volume:  4.07e-002 liters/mole
   P * Vm / RT:  1.50619  (Compressibility Factor Z) 

                                                        Moles in gas
                                            ----------------------------------
Component         log P           P    phi     Initial       Final       Delta

CH4(g)             2.41  2.592e+002  0.822  7.083e+000  7.035e+000 -4.775e-002
CO2(g)             2.59  3.910e+002  0.242  8.748e+000  1.061e+001  1.862e+000
H2O(g)            -0.24  5.733e-001  0.099  1.298e-002  1.556e-002  2.578e-003
N2(g)              2.41  2.543e+002  1.844  6.971e+000  6.902e+000 -6.899e-002

-----------------------------Solution composition------------------------------

	Elements           Molality       Moles

	C                1.891e+000  1.831e+000
	N                1.186e+000  1.149e+000

----------------------------Description of solution----------------------------

                                       pH  =   5.891      Charge balance
                                       pe  =  -2.777      Adjusted to redox equilibrium
       Specific Conductance (uS/cm, 25 oC) = 70317
                          Density (g/cm3)  =   1.06880
                               Volume (L)  =   1.09826
                        Activity of water  =   0.949
                           Ionic strength  =  1.019e+000
                       Mass of water (kg)  =  9.686e-001
                 Total alkalinity (eq/kg)  =  1.019e+000
                       Total CO2 (mol/kg)  =  1.817e+000
                      Temperature (deg C)  =  25.00
                           Pressure (atm)  = 905.14
                  Electrical balance (eq)  = -3.941e-009
 Percent error, 100*(Cat-|An|)/(Cat+|An|)  =  -0.00
                               Iterations  =  55
                                  Total H  = 1.127467e+002
                                  Total O  = 5.827052e+001

----------------------------Distribution of species----------------------------

                                               Log       Log       Log    mole V
   Species          Molality    Activity  Molality  Activity     Gamma   cm3/mol

   H+             1.711e-006  1.286e-006    -5.767    -5.891    -0.124      0.00
   OH-            2.374e-008  1.402e-008    -7.625    -7.853    -0.229      0.38
   H2O            5.551e+001  9.491e-001     1.744    -0.023     0.000     17.41
C(-4)        7.360e-002
   CH4            7.360e-002  9.306e-002    -1.133    -1.031     0.102     32.22
C(4)         1.817e+000
   HCO3-          1.018e+000  6.769e-001     0.008    -0.169    -0.177     29.96
   CO2            7.987e-001  1.010e+000    -0.098     0.004     0.102     31.87
   CO3-2          3.044e-004  5.952e-005    -3.517    -4.225    -0.709      6.15
H(0)         2.337e-010
   H2             1.168e-010  1.477e-010    -9.932    -9.831     0.102     28.28
N(-3)        1.019e+000
   NH4+           1.019e+000  5.466e-001     0.008    -0.262    -0.270     19.70
   NH3            1.576e-004  1.993e-004    -3.802    -3.701     0.102     24.99
N(0)         1.677e-001
   N2             8.385e-002  1.060e-001    -1.076    -0.975     0.102     29.29
N(3)         0.000e+000
   NO2-           0.000e+000  0.000e+000   -59.641   -59.889    -0.248     25.63
N(5)         0.000e+000
   NO3-           0.000e+000  0.000e+000   -81.791   -82.039    -0.248     29.55
O(0)         0.000e+000
   O2             0.000e+000  0.000e+000   -73.686   -73.585     0.102     29.37

------------------------------Saturation indices-------------------------------

	Phase               SI   log IAP   log K(298 K, 905 atm)

	CH4(g)            2.33     -1.03   -3.36  CH4	 Pressure 259.2 atm, phi 0.822.
	CO2(g)            2.54      0.00   -2.54  CO2	 Pressure 391.0 atm, phi 0.242.
	H2(g)            -6.73     -9.83   -3.10  H2
	H2O(g)           -1.25     -0.02    1.22  H2O	 Pressure   0.6 atm, phi 0.099.
	N2(g)             2.67     -0.97   -3.65  N2	 Pressure 254.3 atm, phi 1.844.
	NH3(g)           -5.26     -3.70    1.56  NH3
	O2(g)           -70.13    -73.58   -3.45  O2


------------------
End of simulation.
------------------

------------------------------------
Reading input data for simulation 2.
------------------------------------

-------------------------------
End of Run after 0.039 Seconds.
-------------------------------

