   Input file: gas_fix_P
  Output file: gas_fix_P.out
Database file: ../database/phreeqc.dat

------------------
Reading data base.
------------------

	SOLUTION_MASTER_SPECIES
	SOLUTION_SPECIES
	PHASES
	EXCHANGE_MASTER_SPECIES
	EXCHANGE_SPECIES
	SURFACE_MASTER_SPECIES
	SURFACE_SPECIES
	RATES
	END
------------------------------------
Reading input data for simulation 1.
------------------------------------

	DATABASE ../database/phreeqc.dat
	SOLUTION 1
	  pH 3 charge
	GAS_PHASE 1
	    fixed_pressure
	    pressure 950.9
	    N2(g) 11
	    CO2(g) 470
	    H2O(g) 0.0
	REACTION
	 CO2 1
	 2*2
	INCREMENTAL_REACTIONS true
	END
-------------------------------------------
Beginning of initial solution calculations.
-------------------------------------------

Initial solution 1.	

-----------------------------Solution composition------------------------------

	Elements           Molality       Moles

	Pure water     

----------------------------Description of solution----------------------------

                                       pH  =   6.997      Charge balance
                                       pe  =   4.000    
       Specific Conductance (uS/cm, 25 oC) = 0
                          Density (g/cm3)  =   0.99704
                               Volume (L)  =   1.00297
                        Activity of water  =   1.000
                           Ionic strength  =  1.006e-007
                       Mass of water (kg)  =  1.000e+000
                 Total alkalinity (eq/kg)  =  6.128e-016
                    Total carbon (mol/kg)  =  0.000e+000
                       Total CO2 (mol/kg)  =  0.000e+000
                      Temperature (deg C)  =  25.00
                  Electrical balance (eq)  = -6.128e-016
 Percent error, 100*(Cat-|An|)/(Cat+|An|)  =  -0.00
                               Iterations  =  12
                                  Total H  = 1.110124e+002
                                  Total O  = 5.550622e+001

----------------------------Distribution of species----------------------------

                                               Log       Log       Log    mole V
   Species          Molality    Activity  Molality  Activity     Gamma   cm3/mol

   OH-            1.006e-007  1.006e-007    -6.997    -6.997    -0.000     -4.14
   H+             1.006e-007  1.006e-007    -6.997    -6.997    -0.000      0.00
   H2O            5.551e+001  1.000e+000     1.744    -0.000     0.000     18.07
H(0)         1.433e-025
   H2             7.166e-026  7.166e-026   -25.145   -25.145     0.000     28.61
O(0)         0.000e+000
   O2             0.000e+000  0.000e+000   -42.090   -42.090     0.000     30.40

------------------------------Saturation indices-------------------------------

	Phase               SI   log IAP   log K(298 K,   1 atm)

	H2(g)           -22.04    -25.14   -3.10  H2
	H2O(g)           -1.50     -0.00    1.50  H2O
	O2(g)           -39.20    -42.09   -2.89  O2


-----------------------------------------
Beginning of batch-reaction calculations.
-----------------------------------------

Reaction step 1.

Using solution 1.	
Using gas phase 1.	
Using reaction 1.	

Reaction 1.	

	 2.000e+000 moles of the following reaction have been added:

	                 Relative
	Reactant            moles

	CO2                  1.00000

	                 Relative
	Element             moles
	C                    1.00000
	O                    2.00000

-----------------------------------Gas phase-----------------------------------

Total pressure: 481.00      atmospheres          (Peng-Robinson calculation)
    Gas volume:  1.01e+000 liters
  Molar volume:  4.08e-002 liters/mole
   P * Vm / RT:  0.80166  (Compressibility Factor Z) 

                                                        Moles in gas
                                            ----------------------------------
Component         log P           P    phi     Initial       Final       Delta

CO2(g)             2.67  4.685e+002  0.195  2.390e+001  2.418e+001  2.823e-001
H2O(g)             0.27  1.883e+000  0.023  0.000e+000  9.717e-002  9.717e-002
N2(g)              1.03  1.063e+001  2.729  5.593e-001  5.485e-001 -1.087e-002

-----------------------------Solution composition------------------------------

	Elements           Molality       Moles

	C                1.721e+000  1.718e+000
	N                2.178e-002  2.174e-002

----------------------------Description of solution----------------------------

                                       pH  =   2.963      Charge balance
                                       pe  =   5.529      Adjusted to redox equilibrium
       Specific Conductance (uS/cm, 25 oC) = 435
                          Density (g/cm3)  =   1.03824
                               Volume (L)  =   1.11567
                        Activity of water  =   0.971
                           Ionic strength  =  1.129e-003
                       Mass of water (kg)  =  9.982e-001
                 Total alkalinity (eq/kg)  =  1.859e-015
                       Total CO2 (mol/kg)  =  1.721e+000
                      Temperature (deg C)  =  25.00
                           Pressure (atm)  = 481.00
                  Electrical balance (eq)  =  1.069e-014
 Percent error, 100*(Cat-|An|)/(Cat+|An|)  =   0.00
                               Iterations  =  25
                                  Total H  = 1.108181e+002
                                  Total O  = 5.884446e+001

----------------------------Distribution of species----------------------------

                                               Log       Log       Log    mole V
   Species          Molality    Activity  Molality  Activity     Gamma   cm3/mol

   H+             1.129e-003  1.090e-003    -2.947    -2.963    -0.015      0.00
   OH-            1.392e-011  1.341e-011   -10.857   -10.873    -0.016     -2.55
   H2O            5.551e+001  9.705e-001     1.744    -0.013     0.000     17.70
C(-4)        0.000e+000
   CH4            0.000e+000  0.000e+000   -43.592   -43.592     0.000     32.22
C(4)         1.721e+000
   CO2            1.720e+000  1.720e+000     0.235     0.236     0.000     31.23
   HCO3-          1.129e-003  1.089e-003    -2.947    -2.963    -0.016     25.04
   CO3-2          9.008e-011  7.787e-011   -10.045   -10.109    -0.063     -0.87
H(0)         8.421e-021
   H2             4.210e-021  4.211e-021   -20.376   -20.376     0.000     28.41
N(-3)        1.257e-014
   NH4+           1.257e-014  1.211e-014   -13.901   -13.917    -0.016     18.70
   NH3            5.618e-021  5.620e-021   -20.250   -20.250     0.000     24.78
N(0)         2.178e-002
   N2             1.089e-002  1.089e-002    -1.963    -1.963     0.000     29.29
N(3)         0.000e+000
   NO2-           0.000e+000  0.000e+000   -47.309   -47.325    -0.016     24.89
N(5)         0.000e+000
   NO3-           0.000e+000  0.000e+000   -58.793   -58.809    -0.016     29.04
O(0)         0.000e+000
   O2             0.000e+000  0.000e+000   -52.091   -52.091     0.000     29.78

------------------------------Saturation indices-------------------------------

	Phase               SI   log IAP   log K(298 K, 481 atm)

	CH4(g)          -41.21    -43.59   -2.38  CH4
	CO2(g)            1.54      0.24   -1.30  CO2	 Pressure 468.5 atm, phi 0.195.
	H2(g)           -17.27    -20.38   -3.10  H2
	H2O(g)           -1.37     -0.01    1.35  H2O	 Pressure   1.9 atm, phi 0.023.
	N2(g)             1.46     -1.96   -3.43  N2	 Pressure  10.6 atm, phi 2.729.
	NH3(g)          -21.92    -20.25    1.67  NH3
	O2(g)           -48.90    -52.09   -3.19  O2


Reaction step 2.

Using solution 1.	
Using gas phase 1.	
Using reaction 1.	

Reaction 1.	

	 2.000e+000 moles of the following reaction have been added:

	                 Relative
	Reactant            moles

	CO2                  1.00000

	                 Relative
	Element             moles
	C                    1.00000
	O                    2.00000

-----------------------------------Gas phase-----------------------------------

Total pressure: 481.00      atmospheres          (Peng-Robinson calculation)
    Gas volume:  1.09e+000 liters
  Molar volume:  4.08e-002 liters/mole
   P * Vm / RT:  0.80118  (Compressibility Factor Z) 

                                                        Moles in gas
                                            ----------------------------------
Component         log P           P    phi     Initial       Final       Delta

CO2(g)             2.67  4.693e+002  0.195  2.418e+001  2.618e+001  1.998e+000
H2O(g)             0.28  1.893e+000  0.023  9.717e-002  1.056e-001  8.420e-003
N2(g)              0.99  9.845e+000  2.738  5.485e-001  5.492e-001  7.675e-004

-----------------------------Solution composition------------------------------

	Elements           Molality       Moles

	C                1.723e+000  1.720e+000
	N                2.024e-002  2.021e-002

----------------------------Description of solution----------------------------

                                       pH  =   2.962      Charge balance
                                       pe  =   5.501      Adjusted to redox equilibrium
       Specific Conductance (uS/cm, 25 oC) = 435
                          Density (g/cm3)  =   1.03827
                               Volume (L)  =   1.11569
                        Activity of water  =   0.971
                           Ionic strength  =  1.130e-003
                       Mass of water (kg)  =  9.981e-001
                 Total alkalinity (eq/kg)  =  4.022e-015
                       Total CO2 (mol/kg)  =  1.723e+000
                      Temperature (deg C)  =  25.00
                           Pressure (atm)  = 481.00
                  Electrical balance (eq)  =  1.069e-014
 Percent error, 100*(Cat-|An|)/(Cat+|An|)  =   0.00
                               Iterations  =  12
                                  Total H  = 1.108012e+002
                                  Total O  = 5.884099e+001

----------------------------Distribution of species----------------------------

                                               Log       Log       Log    mole V
   Species          Molality    Activity  Molality  Activity     Gamma   cm3/mol

   H+             1.130e-003  1.091e-003    -2.947    -2.962    -0.015      0.00
   OH-            1.390e-011  1.340e-011   -10.857   -10.873    -0.016     -2.55
   H2O            5.551e+001  9.705e-001     1.744    -0.013     0.000     17.70
C(-4)        0.000e+000
   CH4            0.000e+000  0.000e+000   -43.366   -43.366     0.000     32.22
C(4)         1.723e+000
   CO2            1.722e+000  1.723e+000     0.236     0.236     0.000     31.23
   HCO3-          1.130e-003  1.089e-003    -2.947    -2.963    -0.016     25.04
   CO3-2          9.009e-011  7.787e-011   -10.045   -10.109    -0.063     -0.87
H(0)         9.588e-021
   H2             4.794e-021  4.795e-021   -20.319   -20.319     0.000     28.41
N(-3)        1.474e-014
   NH4+           1.474e-014  1.419e-014   -13.832   -13.848    -0.016     18.70
   NH3            6.581e-021  6.582e-021   -20.182   -20.182     0.000     24.78
N(0)         2.024e-002
   N2             1.012e-002  1.012e-002    -1.995    -1.995     0.000     29.29
N(3)         0.000e+000
   NO2-           0.000e+000  0.000e+000   -47.410   -47.426    -0.016     24.89
N(5)         0.000e+000
   NO3-           0.000e+000  0.000e+000   -58.950   -58.966    -0.016     29.04
O(0)         0.000e+000
   O2             0.000e+000  0.000e+000   -52.204   -52.204     0.000     29.78

------------------------------Saturation indices-------------------------------

	Phase               SI   log IAP   log K(298 K, 481 atm)

	CH4(g)          -40.98    -43.37   -2.38  CH4
	CO2(g)            1.54      0.24   -1.30  CO2	 Pressure 469.3 atm, phi 0.195.
	H2(g)           -17.22    -20.32   -3.10  H2
	H2O(g)           -1.37     -0.01    1.35  H2O	 Pressure   1.9 atm, phi 0.023.
	N2(g)             1.43     -1.99   -3.43  N2	 Pressure   9.8 atm, phi 2.738.
	NH3(g)          -21.85    -20.18    1.67  NH3
	O2(g)           -49.01    -52.20   -3.19  O2


------------------
End of simulation.
------------------

------------------------------------
Reading input data for simulation 2.
------------------------------------

-------------------------------
End of Run after 0.015 Seconds.
-------------------------------

