WARNING: Database file from DATABASE keyword is used; command line argument ignored.
   Input file: joe
  Output file: joe.out
Database file: ../database/phreeqc.dat

------------------
Reading data base.
------------------

	SOLUTION_MASTER_SPECIES
	SOLUTION_SPECIES
	PHASES
	EXCHANGE_MASTER_SPECIES
	EXCHANGE_SPECIES
	SURFACE_MASTER_SPECIES
	SURFACE_SPECIES
	RATES
	END
------------------------------------
Reading input data for simulation 1.
------------------------------------

	DATABASE ../database/phreeqc.dat
	PRINT
		status false
	SOLUTION 1	WLB ms APW04
		temp	25.
		ph	6.692	charge
		dens	1.0
		pe	4.0
		units	mol/kgw
		Ca	6.227e-03
		Mg	4.850e-03
		Na	1.863e-01
		K	3.200e-03
		Sr	5.800e-04
		Cl	2.000e-01
		C	1.646e-02	as HCO3
		F	2.026e-04
		Si	2.700e-04	as Si(OH)4
	EXCHANGE	1
		equilibrate	1
		X	1.06534
	PURE_PHASES	1
		Calcite		0.0
		Fluorite	0.0
		CO2(g)		-0.94
	EXCHANGE_MASTER_SPECIES
		X	X-	
	EXCHANGE_SPECIES
		X- = X-
		log_k		0.0
		Na+ + X- = NaX
		log_k		0.0
		K+ + X- = KX
		log_k		0.819
		H+ + X- = HX
		log_k		1.     0
		Ca+2 + 2X- = CaX2
		log_k		0.564
		Mg+2 + 2X- = MgX2
		log_k		0.182
		Sr+2 + 2X- = SrX2
		log_k		0.529
	SAVE exchange 2
	END
-------------------------------------------
Beginning of initial solution calculations.
-------------------------------------------

Initial solution 1.	WLB ms APW04

-----------------------------Solution composition------------------------------

	Elements           Molality       Moles

	C                1.646e-002  1.646e-002
	Ca               6.227e-003  6.227e-003
	Cl               2.000e-001  2.000e-001
	F                2.026e-004  2.026e-004
	K                3.200e-003  3.200e-003
	Mg               4.850e-003  4.850e-003
	Na               1.863e-001  1.863e-001
	Si               2.700e-004  2.700e-004
	Sr               5.800e-004  5.800e-004

----------------------------Description of solution----------------------------

                                       pH  =   6.606      Charge balance
                                       pe  =   4.000    
       Specific Conductance (uS/cm, 25 oC) = 21443
                          Density (g/cm3)  =   1.00610
                               Volume (L)  =   1.00755
                        Activity of water  =   0.993
                           Ionic strength  =  2.212e-001
                       Mass of water (kg)  =  1.000e+000
                 Total alkalinity (eq/kg)  =  1.261e-002
                       Total CO2 (mol/kg)  =  1.646e-002
                      Temperature (deg C)  =  25.00
                  Electrical balance (eq)  =  1.061e-014
 Percent error, 100*(Cat-|An|)/(Cat+|An|)  =   0.00
                               Iterations  =   8
                                  Total H  = 1.110261e+002
                                  Total O  = 5.555282e+001

----------------------------Distribution of species----------------------------

                                               Log       Log       Log    mole V
   Species          Molality    Activity  Molality  Activity     Gamma   cm3/mol

   H+             3.122e-007  2.478e-007    -6.506    -6.606    -0.100      0.00
   OH-            5.804e-008  4.056e-008    -7.236    -7.392    -0.156     -3.45
   H2O            5.551e+001  9.929e-001     1.744    -0.003     0.000     18.07
C(-4)        0.000e+000
   CH4            0.000e+000  0.000e+000   -62.864   -62.842     0.022     32.22
C(4)         1.646e-002
   HCO3-          9.783e-003  7.240e-003    -2.010    -2.140    -0.131     25.83
   CO2            3.860e-003  4.062e-003    -2.413    -2.391     0.022     30.26
   NaHCO3         2.362e-003  2.485e-003    -2.627    -2.605     0.022     19.41
   CaHCO3+        2.306e-004  1.731e-004    -3.637    -3.762    -0.124      9.89
   MgHCO3+        1.856e-004  1.320e-004    -3.731    -3.880    -0.148      5.72
   SrHCO3+        2.605e-005  1.928e-005    -4.584    -4.715    -0.131     (0)  
   CO3-2          4.569e-006  1.370e-006    -5.340    -5.863    -0.523     -2.37
   CaCO3          4.099e-006  4.314e-006    -5.387    -5.365     0.022    -14.60
   MgCO3          1.936e-006  2.037e-006    -5.713    -5.691     0.022    -17.09
   NaCO3-         1.130e-006  8.365e-007    -5.947    -6.078    -0.131      0.31
   SrCO3          1.447e-007  1.523e-007    -6.839    -6.817     0.022    -14.13
Ca           6.227e-003
   Ca+2           5.992e-003  1.874e-003    -2.222    -2.727    -0.505    -17.18
   CaHCO3+        2.306e-004  1.731e-004    -3.637    -3.762    -0.124      9.89
   CaCO3          4.099e-006  4.314e-006    -5.387    -5.365     0.022    -14.60
   CaOH+          1.678e-009  1.246e-009    -8.775    -8.904    -0.129     (0)  
Cl           2.000e-001
   Cl-            2.000e-001  1.416e-001    -0.699    -0.849    -0.150     18.48
F            2.026e-004
   F-             1.759e-004  1.229e-004    -3.755    -3.911    -0.156     -0.97
   MgF+           1.752e-005  1.265e-005    -4.757    -4.898    -0.141    -10.34
   NaF            9.184e-006  9.663e-006    -5.037    -5.015     0.022      7.26
   HF             4.340e-008  4.566e-008    -7.363    -7.340     0.022     12.50
   HF2-           2.900e-011  2.153e-011   -10.538   -10.667    -0.129     22.47
   SiF6-2         1.995e-023  5.736e-024   -22.700   -23.241    -0.541     44.23
H(0)         8.262e-025
   H2             4.131e-025  4.347e-025   -24.384   -24.362     0.022     28.61
K            3.200e-003
   K+             3.200e-003  2.253e-003    -2.495    -2.647    -0.152      9.36
Mg           4.850e-003
   Mg+2           4.645e-003  1.558e-003    -2.333    -2.807    -0.474    -20.89
   MgHCO3+        1.856e-004  1.320e-004    -3.731    -3.880    -0.148      5.72
   MgF+           1.752e-005  1.265e-005    -4.757    -4.898    -0.141    -10.34
   MgCO3          1.936e-006  2.037e-006    -5.713    -5.691     0.022    -17.09
   MgOH+          2.986e-008  2.266e-008    -7.525    -7.645    -0.120     (0)  
Na           1.863e-001
   Na+            1.839e-001  1.367e-001    -0.735    -0.864    -0.129     -0.94
   NaHCO3         2.362e-003  2.485e-003    -2.627    -2.605     0.022     19.41
   NaF            9.184e-006  9.663e-006    -5.037    -5.015     0.022      7.26
   NaCO3-         1.130e-006  8.365e-007    -5.947    -6.078    -0.131      0.31
   NaOH           5.268e-019  5.543e-019   -18.278   -18.256     0.022     (0)  
O(0)         0.000e+000
   O2             0.000e+000  0.000e+000   -43.685   -43.663     0.022     30.40
Si           2.700e-004
   H4SiO4         2.698e-004  2.839e-004    -3.569    -3.547     0.022     52.08
   H3SiO4-        2.376e-007  1.689e-007    -6.624    -6.772    -0.148     28.39
   H2SiO4-2       1.546e-013  4.637e-014   -12.811   -13.334    -0.523     (0)  
   SiF6-2         1.995e-023  5.736e-024   -22.700   -23.241    -0.541     44.23
Sr           5.800e-004
   Sr+2           5.538e-004  1.741e-004    -3.257    -3.759    -0.503    -16.91
   SrHCO3+        2.605e-005  1.928e-005    -4.584    -4.715    -0.131     (0)  
   SrCO3          1.447e-007  1.523e-007    -6.839    -6.817     0.022    -14.13
   SrOH+          4.886e-011  3.578e-011   -10.311   -10.446    -0.135     (0)  

------------------------------Saturation indices-------------------------------

	Phase               SI   log IAP   log K(298 K,   1 atm)

	Aragonite        -0.25     -8.59   -8.34  CaCO3
	Calcite          -0.11     -8.59   -8.48  CaCO3
	CH4(g)          -60.00    -62.84   -2.84  CH4
	Chalcedony        0.01     -3.54   -3.55  SiO2
	Chrysotile       -8.08     24.12   32.20  Mg3Si2O5(OH)4
	CO2(g)           -0.93     -2.39   -1.46  CO2
	Dolomite         -0.17    -17.26  -17.09  CaMg(CO3)2
	Fluorite          0.05    -10.55  -10.60  CaF2
	H2(g)           -21.26    -24.36   -3.10  H2
	H2O(g)           -1.51     -0.00    1.50  H2O
	Halite           -3.28     -1.71    1.57  NaCl
	O2(g)           -40.77    -43.66   -2.89  O2
	Quartz            0.44     -3.54   -3.98  SiO2
	Sepiolite        -5.59     10.17   15.76  Mg2Si3O7.5OH:3H2O
	Sepiolite(d)     -8.49     10.17   18.66  Mg2Si3O7.5OH:3H2O
	SiO2(a)          -0.83     -3.54   -2.71  SiO2
	Strontianite     -0.35     -9.62   -9.27  SrCO3
	Sylvite          -4.40     -3.50    0.90  KCl
	Talc             -4.36     17.04   21.40  Mg3Si4O10(OH)2


-------------------------------------------------------
Beginning of initial exchange-composition calculations.
-------------------------------------------------------

Exchange 1.	

X               1.065e+000 mol

	                               Equiv-    Equivalent      Log 
	Species             Moles      alents      Fraction     Gamma

	NaX              7.261e-001  7.261e-001  6.816e-001     0.000
	CaX2             9.098e-002  1.820e-001  1.708e-001     0.000
	KX               7.891e-002  7.891e-002  7.407e-002     0.000
	MgX2             3.138e-002  6.276e-002  5.891e-002     0.000
	SrX2             7.798e-003  1.560e-002  1.464e-002     0.000
	HX               1.317e-005  1.317e-005  1.236e-005     0.000

-----------------------------------------
Beginning of batch-reaction calculations.
-----------------------------------------

Reaction step 1.

Using solution 1.	WLB ms APW04
Using exchange 1.	Exchange assemblage after simulation 1.
Using pure phase assemblage 1.	

-------------------------------Phase assemblage--------------------------------

                                                      Moles in assemblage
Phase               SI  log IAP  log K(T, P)   Initial       Final       Delta

CO2(g)           -0.94    -2.40     -1.46   1.000e+001  9.999e+000 -6.479e-004
Calcite           0.00    -8.48     -8.48   1.000e+001  9.999e+000 -7.353e-004
Fluorite          0.00   -10.60    -10.60   1.000e+001  1.000e+001  6.468e-006

-----------------------------Exchange composition------------------------------

X               1.065e+000 mol

	                               Equiv-    Equivalent      Log 
	Species             Moles      alents      Fraction     Gamma

	NaX              7.251e-001  7.251e-001  6.806e-001     0.000
	CaX2             9.157e-002  1.831e-001  1.719e-001     0.000
	KX               7.889e-002  7.889e-002  7.405e-002     0.000
	MgX2             3.132e-002  6.263e-002  5.879e-002     0.000
	SrX2             7.789e-003  1.558e-002  1.462e-002     0.000
	HX               1.151e-005  1.151e-005  1.080e-005     0.000

-----------------------------Solution composition------------------------------

	Elements           Molality       Moles

	C                1.784e-002  1.784e-002
	Ca               6.368e-003  6.368e-003
	Cl               2.000e-001  2.000e-001
	F                1.897e-004  1.897e-004
	K                3.217e-003  3.217e-003
	Mg               4.915e-003  4.915e-003
	Na               1.873e-001  1.873e-001
	Si               2.700e-004  2.700e-004
	Sr               5.891e-004  5.891e-004

----------------------------Description of solution----------------------------

                                       pH  =   6.662      Charge balance
                                       pe  =  -1.211      Adjusted to redox equilibrium
       Specific Conductance (uS/cm, 25 oC) = 21522
                          Density (g/cm3)  =   1.00619
                               Volume (L)  =   1.00764
                        Activity of water  =   0.993
                           Ionic strength  =  2.224e-001
                       Mass of water (kg)  =  1.000e+000
                 Total alkalinity (eq/kg)  =  1.408e-002
                       Total CO2 (mol/kg)  =  1.784e-002
                      Temperature (deg C)  =  25.00
                  Electrical balance (eq)  = -2.473e-011
 Percent error, 100*(Cat-|An|)/(Cat+|An|)  =  -0.00
                               Iterations  =   9
                                  Total H  = 1.110261e+002
                                  Total O  = 5.555632e+001

----------------------------Distribution of species----------------------------

                                               Log       Log       Log    mole V
   Species          Molality    Activity  Molality  Activity     Gamma   cm3/mol

   H+             2.743e-007  2.176e-007    -6.562    -6.662    -0.100      0.00
   OH-            6.613e-008  4.618e-008    -7.180    -7.336    -0.156     -3.45
   H2O            5.551e+001  9.929e-001     1.744    -0.003     0.000     18.07
C(-4)        2.292e-022
   CH4            2.292e-022  2.413e-022   -21.640   -21.618     0.022     32.22
C(4)         1.784e-002
   HCO3-          1.091e-002  8.069e-003    -1.962    -2.093    -0.131     25.84
   CO2            3.778e-003  3.977e-003    -2.423    -2.400     0.022     30.26
   NaHCO3         2.641e-003  2.780e-003    -2.578    -2.556     0.022     19.41
   CaHCO3+        2.613e-004  1.961e-004    -3.583    -3.707    -0.125      9.89
   MgHCO3+        2.087e-004  1.482e-004    -3.680    -3.829    -0.149      5.72
   SrHCO3+        2.931e-005  2.168e-005    -4.533    -4.664    -0.131     (0)  
   CO3-2          5.809e-006  1.739e-006    -5.236    -5.760    -0.524     -2.36
   CaCO3          5.287e-006  5.565e-006    -5.277    -5.255     0.022    -14.60
   MgCO3          2.475e-006  2.605e-006    -5.606    -5.584     0.022    -17.09
   NaCO3-         1.440e-006  1.065e-006    -5.842    -5.973    -0.131      0.31
   SrCO3          1.852e-007  1.950e-007    -6.732    -6.710     0.022    -14.13
Ca           6.368e-003
   Ca+2           6.101e-003  1.905e-003    -2.215    -2.720    -0.505    -17.17
   CaHCO3+        2.613e-004  1.961e-004    -3.583    -3.707    -0.125      9.89
   CaCO3          5.287e-006  5.565e-006    -5.277    -5.255     0.022    -14.60
   CaOH+          1.943e-009  1.442e-009    -8.711    -8.841    -0.129     (0)  
Cl           2.000e-001
   Cl-            2.000e-001  1.415e-001    -0.699    -0.849    -0.150     18.48
F            1.897e-004
   F-             1.645e-004  1.149e-004    -3.784    -3.940    -0.156     -0.97
   MgF+           1.651e-005  1.192e-005    -4.782    -4.924    -0.142    -10.34
   NaF            8.614e-006  9.066e-006    -5.065    -5.043     0.022      7.26
   HF             3.562e-008  3.749e-008    -7.448    -7.426     0.022     12.50
   HF2-           2.226e-011  1.652e-011   -10.652   -10.782    -0.129     22.48
   SiF6-2         7.941e-024  2.279e-024   -23.100   -23.642    -0.542     44.23
H(0)         1.680e-014
   H2             8.402e-015  8.843e-015   -14.076   -14.053     0.022     28.61
K            3.217e-003
   K+             3.217e-003  2.264e-003    -2.493    -2.645    -0.153      9.36
Mg           4.915e-003
   Mg+2           4.688e-003  1.570e-003    -2.329    -2.804    -0.475    -20.88
   MgHCO3+        2.087e-004  1.482e-004    -3.680    -3.829    -0.149      5.72
   MgF+           1.651e-005  1.192e-005    -4.782    -4.924    -0.142    -10.34
   MgCO3          2.475e-006  2.605e-006    -5.606    -5.584     0.022    -17.09
   MgOH+          3.427e-008  2.601e-008    -7.465    -7.585    -0.120     (0)  
Na           1.873e-001
   Na+            1.847e-001  1.372e-001    -0.734    -0.863    -0.129     -0.94
   NaHCO3         2.641e-003  2.780e-003    -2.578    -2.556     0.022     19.41
   NaF            8.614e-006  9.066e-006    -5.065    -5.043     0.022      7.26
   NaCO3-         1.440e-006  1.065e-006    -5.842    -5.973    -0.131      0.31
   NaOH           6.017e-019  6.334e-019   -18.221   -18.198     0.022     (0)  
O(0)         0.000e+000
   O2             0.000e+000  0.000e+000   -64.302   -64.279     0.022     30.40
Si           2.700e-004
   H4SiO4         2.697e-004  2.839e-004    -3.569    -3.547     0.022     52.08
   H3SiO4-        2.708e-007  1.923e-007    -6.567    -6.716    -0.149     28.39
   H2SiO4-2       2.009e-013  6.012e-014   -12.697   -13.221    -0.524     (0)  
   SiF6-2         7.941e-024  2.279e-024   -23.100   -23.642    -0.542     44.23
Sr           5.891e-004
   Sr+2           5.596e-004  1.756e-004    -3.252    -3.755    -0.503    -16.91
   SrHCO3+        2.931e-005  2.168e-005    -4.533    -4.664    -0.131     (0)  
   SrCO3          1.852e-007  1.950e-007    -6.732    -6.710     0.022    -14.13
   SrOH+          5.615e-011  4.110e-011   -10.251   -10.386    -0.136     (0)  

------------------------------Saturation indices-------------------------------

	Phase               SI   log IAP   log K(298 K,   1 atm)

	Aragonite        -0.14     -8.48   -8.34  CaCO3
	Calcite           0.00     -8.48   -8.48  CaCO3
	CH4(g)          -18.77    -21.62   -2.84  CH4
	Chalcedony        0.01     -3.54   -3.55  SiO2
	Chrysotile       -7.74     24.46   32.20  Mg3Si2O5(OH)4
	CO2(g)           -0.94     -2.40   -1.46  CO2	 Pressure   0.1 atm, phi 0.999.
	Dolomite          0.05    -17.04  -17.09  CaMg(CO3)2
	Fluorite          0.00    -10.60  -10.60  CaF2
	H2(g)           -10.95    -14.05   -3.10  H2
	H2O(g)           -1.51     -0.00    1.50  H2O
	Halite           -3.28     -1.71    1.57  NaCl
	O2(g)           -61.39    -64.28   -2.89  O2
	Quartz            0.44     -3.54   -3.98  SiO2
	Sepiolite        -5.36     10.40   15.76  Mg2Si3O7.5OH:3H2O
	Sepiolite(d)     -8.26     10.40   18.66  Mg2Si3O7.5OH:3H2O
	SiO2(a)          -0.83     -3.54   -2.71  SiO2
	Strontianite     -0.24     -9.52   -9.27  SrCO3
	Sylvite          -4.39     -3.49    0.90  KCl
	Talc             -4.01     17.39   21.40  Mg3Si4O10(OH)2


------------------
End of simulation.
------------------

------------------------------------
Reading input data for simulation 2.
------------------------------------

	SOLUTION 2
		temp	25
		ph	7.0	charge
		dens	1.0
		pe	4.0
		units	mol/kgw
		Cl	0.2
	MIX
		2	0.1
	PURE_PHASES 2
		Calcite 	0.0	0.1
		Fluorite	0.0	0.1
	USE exchange 2
	END
-------------------------------------------
Beginning of initial solution calculations.
-------------------------------------------

Initial solution 2.	

-----------------------------Solution composition------------------------------

	Elements           Molality       Moles

	Cl               2.000e-001  2.000e-001

----------------------------Description of solution----------------------------

                                       pH  =   0.797      Charge balance
                                       pe  =   4.000    
       Specific Conductance (uS/cm, 25 oC) = 73532
                          Density (g/cm3)  =   1.00063
                               Volume (L)  =   1.00666
                        Activity of water  =   0.993
                           Ionic strength  =  2.000e-001
                       Mass of water (kg)  =  1.000e+000
                 Total alkalinity (eq/kg)  = -2.000e-001
                    Total carbon (mol/kg)  =  0.000e+000
                       Total CO2 (mol/kg)  =  0.000e+000
                      Temperature (deg C)  =  25.00
                  Electrical balance (eq)  =  5.561e-010
 Percent error, 100*(Cat-|An|)/(Cat+|An|)  =   0.00
                               Iterations  =   7
                                  Total H  = 1.112124e+002
                                  Total O  = 5.550622e+001

----------------------------Distribution of species----------------------------

                                               Log       Log       Log    mole V
   Species          Molality    Activity  Molality  Activity     Gamma   cm3/mol

   H+             2.000e-001  1.595e-001    -0.699    -0.797    -0.098      0.00
   OH-            8.915e-014  6.302e-014   -13.050   -13.201    -0.151     -3.50
   H2O            5.551e+001  9.932e-001     1.744    -0.003     0.000     18.07
Cl           2.000e-001
   Cl-            2.000e-001  1.431e-001    -0.699    -0.844    -0.145     18.46
H(0)         3.441e-013
   H2             1.720e-013  1.801e-013   -12.764   -12.744     0.020     28.61
O(0)         0.000e+000
   O2             0.000e+000  0.000e+000   -66.917   -66.897     0.020     30.40

------------------------------Saturation indices-------------------------------

	Phase               SI   log IAP   log K(298 K,   1 atm)

	H2(g)            -9.64    -12.74   -3.10  H2
	H2O(g)           -1.51     -0.00    1.50  H2O
	O2(g)           -64.00    -66.90   -2.89  O2


-----------------------------------------
Beginning of batch-reaction calculations.
-----------------------------------------

Reaction step 1.

Using mix 1.	
Using exchange 2.	Exchange assemblage after simulation 1.
Using pure phase assemblage 2.	

Mixture 1.	

	 1.000e-001 Solution 2	                                                       

-------------------------------Phase assemblage--------------------------------

                                                      Moles in assemblage
Phase               SI  log IAP  log K(T, P)   Initial       Final       Delta

Calcite           0.00    -8.48     -8.48   1.000e-001  8.733e-002 -1.267e-002
Fluorite          0.00   -10.60    -10.60   1.000e-001  9.999e-002 -8.287e-006

-----------------------------Exchange composition------------------------------

X               1.065e+000 mol

	                               Equiv-    Equivalent      Log 
	Species             Moles      alents      Fraction     Gamma

	NaX              7.037e-001  7.037e-001  6.605e-001     0.000
	CaX2             1.032e-001  2.064e-001  1.938e-001     0.000
	KX               7.853e-002  7.853e-002  7.371e-002     0.000
	MgX2             3.062e-002  6.124e-002  5.748e-002     0.000
	SrX2             7.702e-003  1.540e-002  1.446e-002     0.000
	HX               5.376e-005  5.376e-005  5.046e-005     0.000

-----------------------------Solution composition------------------------------

	Elements           Molality       Moles

	C                1.265e-001  1.267e-002
	Ca               1.040e-002  1.041e-003
	Cl               1.997e-001  2.000e-002
	F                1.655e-004  1.657e-005
	K                3.654e-003  3.659e-004
	Mg               6.948e-003  6.957e-004
	Na               2.136e-001  2.139e-002
	Sr               8.626e-004  8.638e-005

----------------------------Description of solution----------------------------

                                       pH  =   5.942      Charge balance
                                       pe  =  -1.129      Adjusted to redox equilibrium
       Specific Conductance (uS/cm, 25 oC) = 23587
                          Density (g/cm3)  =   1.00948
                               Volume (L)  =   0.10172
                        Activity of water  =   0.991
                           Ionic strength  =  2.563e-001
                       Mass of water (kg)  =  1.001e-001
                 Total alkalinity (eq/kg)  =  5.378e-002
                       Total CO2 (mol/kg)  =  1.265e-001
                      Temperature (deg C)  =  25.00
                  Electrical balance (eq)  =  4.828e-011
 Percent error, 100*(Cat-|An|)/(Cat+|An|)  =   0.00
                               Iterations  =  16
                                  Total H  = 1.112120e+001
                                  Total O  = 5.588636e+000

----------------------------Distribution of species----------------------------

                                               Log       Log       Log    mole V
   Species          Molality    Activity  Molality  Activity     Gamma   cm3/mol

   H+             1.450e-006  1.143e-006    -5.839    -5.942    -0.103      0.00
   OH-            1.278e-008  8.776e-009    -7.893    -8.057    -0.163     -3.38
   H2O            5.551e+001  9.907e-001     1.744    -0.004     0.000     18.07
C(-4)        5.736e-016
   CH4            5.736e-016  6.085e-016   -15.241   -15.216     0.026     32.22
C(4)         1.265e-001
   CO2            7.278e-002  7.720e-002    -1.138    -1.112     0.026     30.26
   HCO3-          4.073e-002  2.977e-002    -1.390    -1.526    -0.136     26.00
   NaHCO3         1.054e-002  1.119e-002    -1.977    -1.951     0.026     19.41
   CaHCO3+        1.387e-003  1.030e-003    -2.858    -2.987    -0.129      9.90
   MgHCO3+        9.648e-004  6.751e-004    -3.016    -3.171    -0.155      5.73
   SrHCO3+        1.366e-004  9.986e-005    -3.865    -4.001    -0.136     (0)  
   CaCO3          5.246e-006  5.565e-006    -5.280    -5.255     0.026    -14.60
   CO3-2          4.278e-006  1.222e-006    -5.369    -5.913    -0.544     -2.18
   MgCO3          2.131e-006  2.260e-006    -5.672    -5.646     0.026    -17.09
   NaCO3-         1.117e-006  8.164e-007    -5.952    -6.088    -0.136      0.43
   SrCO3          1.613e-007  1.711e-007    -6.792    -6.767     0.026    -14.13
Ca           1.040e-002
   Ca+2           9.009e-003  2.710e-003    -2.045    -2.567    -0.522    -17.12
   CaHCO3+        1.387e-003  1.030e-003    -2.858    -2.987    -0.129      9.90
   CaCO3          5.246e-006  5.565e-006    -5.280    -5.255     0.026    -14.60
   CaOH+          5.288e-010  3.900e-010    -9.277    -9.409    -0.132     (0)  
Cl           1.997e-001
   Cl-            1.997e-001  1.393e-001    -0.700    -0.856    -0.157     18.51
F            1.655e-004
   F-             1.402e-004  9.630e-005    -3.853    -4.016    -0.163     -0.94
   MgF+           1.732e-005  1.233e-005    -4.761    -4.909    -0.148    -10.33
   NaF            7.813e-006  8.288e-006    -5.107    -5.082     0.026      7.26
   HF             1.556e-007  1.650e-007    -6.808    -6.782     0.026     12.50
   HF2-           8.267e-011  6.097e-011   -10.083   -10.215    -0.132     22.51
H(0)         3.162e-013
   H2             1.581e-013  1.677e-013   -12.801   -12.775     0.026     28.61
K            3.654e-003
   K+             3.654e-003  2.532e-003    -2.437    -2.597    -0.159      9.39
Mg           6.948e-003
   Mg+2           5.964e-003  1.938e-003    -2.224    -2.713    -0.488    -20.83
   MgHCO3+        9.648e-004  6.751e-004    -3.016    -3.171    -0.155      5.73
   MgF+           1.732e-005  1.233e-005    -4.761    -4.909    -0.148    -10.33
   MgCO3          2.131e-006  2.260e-006    -5.672    -5.646     0.026    -17.09
   MgOH+          8.119e-009  6.101e-009    -8.091    -8.215    -0.124     (0)  
Na           2.136e-001
   Na+            2.031e-001  1.496e-001    -0.692    -0.825    -0.133     -0.90
   NaHCO3         1.054e-002  1.119e-002    -1.977    -1.951     0.026     19.41
   NaF            7.813e-006  8.288e-006    -5.107    -5.082     0.026      7.26
   NaCO3-         1.117e-006  8.164e-007    -5.952    -6.088    -0.136      0.43
   NaOH           1.237e-019  1.313e-019   -18.908   -18.882     0.026     (0)  
O(0)         0.000e+000
   O2             0.000e+000  0.000e+000   -66.863   -66.837     0.026     30.40
Sr           8.626e-004
   Sr+2           7.259e-004  2.193e-004    -3.139    -3.659    -0.520    -16.87
   SrHCO3+        1.366e-004  9.986e-005    -3.865    -4.001    -0.136     (0)  
   SrCO3          1.613e-007  1.711e-007    -6.792    -6.767     0.026    -14.13
   SrOH+          1.349e-011  9.750e-012   -10.870   -11.011    -0.141     (0)  

------------------------------Saturation indices-------------------------------

	Phase               SI   log IAP   log K(298 K,   1 atm)

	Aragonite        -0.14     -8.48   -8.34  CaCO3
	Calcite           0.00     -8.48   -8.48  CaCO3
	CH4(g)          -12.37    -15.22   -2.84  CH4
	CO2(g)            0.35     -1.11   -1.46  CO2
	Dolomite         -0.02    -17.11  -17.09  CaMg(CO3)2
	Fluorite          0.00    -10.60  -10.60  CaF2
	H2(g)            -9.67    -12.78   -3.10  H2
	H2O(g)           -1.51     -0.00    1.50  H2O
	Halite           -3.25     -1.68    1.57  NaCl
	O2(g)           -63.94    -66.84   -2.89  O2
	Strontianite     -0.30     -9.57   -9.27  SrCO3
	Sylvite          -4.35     -3.45    0.90  KCl


------------------
End of simulation.
------------------

------------------------------------
Reading input data for simulation 3.
------------------------------------

	MIX
		2	0.01
	USE pure_phases 2
	USE exchange 2
	END
-----------------------------------------
Beginning of batch-reaction calculations.
-----------------------------------------

Reaction step 1.

Using mix 1.	
Using exchange 2.	Exchange assemblage after simulation 1.
Using pure phase assemblage 2.	

Mixture 1.	

	 1.000e-002 Solution 2	                                                       

-------------------------------Phase assemblage--------------------------------

                                                      Moles in assemblage
Phase               SI  log IAP  log K(T, P)   Initial       Final       Delta

Calcite           0.00    -8.48     -8.48   1.000e-001  9.874e-002 -1.262e-003
Fluorite          0.00   -10.60    -10.60   1.000e-001  1.000e-001 -8.827e-007

-----------------------------Exchange composition------------------------------

X               1.065e+000 mol

	                               Equiv-    Equivalent      Log 
	Species             Moles      alents      Fraction     Gamma

	NaX              7.229e-001  7.229e-001  6.786e-001     0.000
	CaX2             9.274e-002  1.855e-001  1.741e-001     0.000
	KX               7.886e-002  7.886e-002  7.402e-002     0.000
	MgX2             3.125e-002  6.249e-002  5.866e-002     0.000
	SrX2             7.780e-003  1.556e-002  1.461e-002     0.000
	HX               4.995e-005  4.995e-005  4.688e-005     0.000

-----------------------------Solution composition------------------------------

	Elements           Molality       Moles

	C                1.260e-001  1.262e-003
	Ca               9.252e-003  9.264e-005
	Cl               1.997e-001  2.000e-003
	F                1.763e-004  1.766e-006
	K                3.641e-003  3.645e-005
	Mg               7.021e-003  7.030e-005
	Na               2.181e-001  2.184e-003
	Sr               8.635e-004  8.646e-006

----------------------------Description of solution----------------------------

                                       pH  =   5.978      Charge balance
                                       pe  =  -1.181      Adjusted to redox equilibrium
       Specific Conductance (uS/cm, 25 oC) = 23733
                          Density (g/cm3)  =   1.00957
                               Volume (L)  =   0.01017
                        Activity of water  =   0.991
                           Ionic strength  =  2.571e-001
                       Mass of water (kg)  =  1.001e-002
                 Total alkalinity (eq/kg)  =  5.612e-002
                       Total CO2 (mol/kg)  =  1.260e-001
                      Temperature (deg C)  =  25.00
                  Electrical balance (eq)  =  5.547e-012
 Percent error, 100*(Cat-|An|)/(Cat+|An|)  =   0.00
                               Iterations  =  17
                                  Total H  = 1.112086e+000
                                  Total O  = 5.588474e-001

----------------------------Distribution of species----------------------------

                                               Log       Log       Log    mole V
   Species          Molality    Activity  Molality  Activity     Gamma   cm3/mol

   H+             1.336e-006  1.053e-006    -5.874    -5.978    -0.103      0.00
   OH-            1.387e-008  9.524e-009    -7.858    -8.021    -0.163     -3.38
   H2O            5.551e+001  9.906e-001     1.744    -0.004     0.000     18.07
C(-4)        7.414e-016
   CH4            7.414e-016  7.866e-016   -15.130   -15.104     0.026     32.22
C(4)         1.260e-001
   CO2            6.991e-002  7.417e-002    -1.155    -1.130     0.026     30.26
   HCO3-          4.247e-002  3.104e-002    -1.372    -1.508    -0.136     26.00
   NaHCO3         1.120e-002  1.188e-002    -1.951    -1.925     0.026     19.41
   CaHCO3+        1.278e-003  9.488e-004    -2.893    -3.023    -0.129      9.90
   MgHCO3+        1.010e-003  7.065e-004    -2.996    -3.151    -0.155      5.73
   SrHCO3+        1.415e-004  1.034e-004    -3.849    -3.985    -0.136     (0)  
   CaCO3          5.245e-006  5.565e-006    -5.280    -5.255     0.026    -14.60
   CO3-2          4.845e-006  1.383e-006    -5.315    -5.859    -0.545     -2.17
   MgCO3          2.419e-006  2.567e-006    -5.616    -5.591     0.026    -17.09
   NaCO3-         1.288e-006  9.411e-007    -5.890    -6.026    -0.136      0.43
   SrCO3          1.812e-007  1.923e-007    -6.742    -6.716     0.026    -14.13
Ca           9.252e-003
   Ca+2           7.969e-003  2.396e-003    -2.099    -2.621    -0.522    -17.12
   CaHCO3+        1.278e-003  9.488e-004    -2.893    -3.023    -0.129      9.90
   CaCO3          5.245e-006  5.565e-006    -5.280    -5.255     0.026    -14.60
   CaOH+          5.073e-010  3.741e-010    -9.295    -9.427    -0.132     (0)  
Cl           1.997e-001
   Cl-            1.997e-001  1.392e-001    -0.700    -0.856    -0.157     18.51
F            1.763e-004
   F-             1.492e-004  1.024e-004    -3.826    -3.990    -0.163     -0.94
   MgF+           1.850e-005  1.316e-005    -4.733    -4.881    -0.148    -10.33
   NaF            8.466e-006  8.982e-006    -5.072    -5.047     0.026      7.26
   HF             1.524e-007  1.617e-007    -6.817    -6.791     0.026     12.50
   HF2-           8.619e-011  6.357e-011   -10.065   -10.197    -0.132     22.51
H(0)         3.405e-013
   H2             1.702e-013  1.806e-013   -12.769   -12.743     0.026     28.61
K            3.641e-003
   K+             3.641e-003  2.522e-003    -2.439    -2.598    -0.160      9.39
Mg           7.021e-003
   Mg+2           5.990e-003  1.945e-003    -2.223    -2.711    -0.488    -20.83
   MgHCO3+        1.010e-003  7.065e-004    -2.996    -3.151    -0.155      5.73
   MgF+           1.850e-005  1.316e-005    -4.733    -4.881    -0.148    -10.33
   MgCO3          2.419e-006  2.567e-006    -5.616    -5.591     0.026    -17.09
   MgOH+          8.845e-009  6.646e-009    -8.053    -8.177    -0.124     (0)  
Na           2.181e-001
   Na+            2.069e-001  1.524e-001    -0.684    -0.817    -0.133     -0.90
   NaHCO3         1.120e-002  1.188e-002    -1.951    -1.925     0.026     19.41
   NaF            8.466e-006  8.982e-006    -5.072    -5.047     0.026      7.26
   NaCO3-         1.288e-006  9.411e-007    -5.890    -6.026    -0.136      0.43
   NaOH           1.368e-019  1.451e-019   -18.864   -18.838     0.026     (0)  
O(0)         0.000e+000
   O2             0.000e+000  0.000e+000   -66.927   -66.902     0.026     30.40
Sr           8.635e-004
   Sr+2           7.218e-004  2.179e-004    -3.142    -3.662    -0.520    -16.87
   SrHCO3+        1.415e-004  1.034e-004    -3.849    -3.985    -0.136     (0)  
   SrCO3          1.812e-007  1.923e-007    -6.742    -6.716     0.026    -14.13
   SrOH+          1.455e-011  1.051e-011   -10.837   -10.978    -0.141     (0)  

------------------------------Saturation indices-------------------------------

	Phase               SI   log IAP   log K(298 K,   1 atm)

	Aragonite        -0.14     -8.48   -8.34  CaCO3
	Calcite           0.00     -8.48   -8.48  CaCO3
	CH4(g)          -12.26    -15.10   -2.84  CH4
	CO2(g)            0.33     -1.13   -1.46  CO2
	Dolomite          0.04    -17.05  -17.09  CaMg(CO3)2
	Fluorite          0.00    -10.60  -10.60  CaF2
	H2(g)            -9.64    -12.74   -3.10  H2
	H2O(g)           -1.51     -0.00    1.50  H2O
	Halite           -3.24     -1.67    1.57  NaCl
	O2(g)           -64.01    -66.90   -2.89  O2
	Strontianite     -0.25     -9.52   -9.27  SrCO3
	Sylvite          -4.35     -3.45    0.90  KCl


------------------
End of simulation.
------------------

------------------------------------
Reading input data for simulation 4.
------------------------------------

	MIX
		2	0.001
	USE pure_phases 2
	USE exchange 2
	END
-----------------------------------------
Beginning of batch-reaction calculations.
-----------------------------------------

Reaction step 1.

Using mix 1.	
Using exchange 2.	Exchange assemblage after simulation 1.
Using pure phase assemblage 2.	

Mixture 1.	

	 1.000e-003 Solution 2	                                                       

-------------------------------Phase assemblage--------------------------------

                                                      Moles in assemblage
Phase               SI  log IAP  log K(T, P)   Initial       Final       Delta

Calcite           0.00    -8.48     -8.48   1.000e-001  9.989e-002 -1.091e-004
Fluorite          0.00   -10.60    -10.60   1.000e-001  1.000e-001 -8.939e-008

-----------------------------Exchange composition------------------------------

X               1.065e+000 mol

	                               Equiv-    Equivalent      Log 
	Species             Moles      alents      Fraction     Gamma

	NaX              7.249e-001  7.249e-001  6.804e-001     0.000
	CaX2             9.167e-002  1.833e-001  1.721e-001     0.000
	KX               7.889e-002  7.889e-002  7.405e-002     0.000
	MgX2             3.131e-002  6.262e-002  5.878e-002     0.000
	SrX2             7.788e-003  1.558e-002  1.462e-002     0.000
	HX               4.499e-005  4.499e-005  4.223e-005     0.000

-----------------------------Solution composition------------------------------

	Elements           Molality       Moles

	C                1.089e-001  1.091e-004
	Ca               8.805e-003  8.814e-006
	Cl               1.998e-001  2.000e-004
	F                1.787e-004  1.789e-007
	K                3.593e-003  3.597e-006
	Mg               6.774e-003  6.781e-006
	Na               2.151e-001  2.153e-004
	Sr               8.304e-004  8.312e-007

----------------------------Description of solution----------------------------

                                       pH  =   6.028      Charge balance
                                       pe  =  -1.220      Adjusted to redox equilibrium
       Specific Conductance (uS/cm, 25 oC) = 23502
                          Density (g/cm3)  =   1.00913
                               Volume (L)  =   0.00102
                        Activity of water  =   0.991
                           Ionic strength  =  2.533e-001
                       Mass of water (kg)  =  1.001e-003
                 Total alkalinity (eq/kg)  =  5.155e-002
                       Total CO2 (mol/kg)  =  1.089e-001
                      Temperature (deg C)  =  25.00
                  Electrical balance (eq)  =  7.026e-013
 Percent error, 100*(Cat-|An|)/(Cat+|An|)  =   0.00
                               Iterations  =  20
                                  Total H  = 1.111790e-001
                                  Total O  = 5.583340e-002

----------------------------Distribution of species----------------------------

                                               Log       Log       Log    mole V
   Species          Molality    Activity  Molality  Activity     Gamma   cm3/mol

   H+             1.188e-006  9.371e-007    -5.925    -6.028    -0.103      0.00
   OH-            1.556e-008  1.070e-008    -7.808    -7.970    -0.163     -3.39
   H2O            5.551e+001  9.910e-001     1.744    -0.004     0.000     18.07
C(-4)        4.906e-016
   CH4            4.906e-016  5.201e-016   -15.309   -15.284     0.025     32.22
C(4)         1.089e-001
   CO2            5.741e-002  6.086e-002    -1.241    -1.216     0.025     30.26
   HCO3-          3.911e-002  2.862e-002    -1.408    -1.543    -0.136     25.99
   NaHCO3         1.024e-002  1.086e-002    -1.990    -1.964     0.025     19.41
   CaHCO3+        1.136e-003  8.445e-004    -2.945    -3.073    -0.129      9.89
   MgHCO3+        9.099e-004  6.375e-004    -3.041    -3.196    -0.155      5.73
   SrHCO3+        1.274e-004  9.324e-005    -3.895    -4.030    -0.136     (0)  
   CaCO3          5.250e-006  5.565e-006    -5.280    -5.255     0.025    -14.60
   CO3-2          4.995e-006  1.432e-006    -5.301    -5.844    -0.542     -2.19
   MgCO3          2.454e-006  2.602e-006    -5.610    -5.585     0.025    -17.09
   NaCO3-         1.320e-006  9.661e-007    -5.879    -6.015    -0.136      0.42
   SrCO3          1.837e-007  1.947e-007    -6.736    -6.711     0.025    -14.13
Ca           8.805e-003
   Ca+2           7.663e-003  2.313e-003    -2.116    -2.636    -0.520    -17.12
   CaHCO3+        1.136e-003  8.445e-004    -2.945    -3.073    -0.129      9.89
   CaCO3          5.250e-006  5.565e-006    -5.280    -5.255     0.025    -14.60
   CaOH+          5.500e-010  4.059e-010    -9.260    -9.392    -0.132     (0)  
Cl           1.998e-001
   Cl-            1.998e-001  1.395e-001    -0.699    -0.856    -0.156     18.51
F            1.787e-004
   F-             1.516e-004  1.043e-004    -3.819    -3.982    -0.163     -0.94
   MgF+           1.840e-005  1.311e-005    -4.735    -4.882    -0.147    -10.33
   NaF            8.545e-006  9.059e-006    -5.068    -5.043     0.025      7.26
   HF             1.382e-007  1.465e-007    -6.859    -6.834     0.025     12.50
   HF2-           7.943e-011  5.861e-011   -10.100   -10.232    -0.132     22.51
H(0)         3.229e-013
   H2             1.615e-013  1.712e-013   -12.792   -12.767     0.025     28.61
K            3.593e-003
   K+             3.593e-003  2.493e-003    -2.445    -2.603    -0.159      9.39
Mg           6.774e-003
   Mg+2           5.843e-003  1.903e-003    -2.233    -2.720    -0.487    -20.84
   MgHCO3+        9.099e-004  6.375e-004    -3.041    -3.196    -0.155      5.73
   MgF+           1.840e-005  1.311e-005    -4.735    -4.882    -0.147    -10.33
   MgCO3          2.454e-006  2.602e-006    -5.610    -5.585     0.025    -17.09
   MgOH+          9.717e-009  7.308e-009    -8.012    -8.136    -0.124     (0)  
Na           2.151e-001
   Na+            2.049e-001  1.510e-001    -0.689    -0.821    -0.133     -0.90
   NaHCO3         1.024e-002  1.086e-002    -1.990    -1.964     0.025     19.41
   NaF            8.545e-006  9.059e-006    -5.068    -5.043     0.025      7.26
   NaCO3-         1.320e-006  9.661e-007    -5.879    -6.015    -0.136      0.42
   NaOH           1.525e-019  1.616e-019   -18.817   -18.792     0.025     (0)  
O(0)         0.000e+000
   O2             0.000e+000  0.000e+000   -66.880   -66.855     0.025     30.40
Sr           8.304e-004
   Sr+2           7.028e-004  2.130e-004    -3.153    -3.672    -0.519    -16.87
   SrHCO3+        1.274e-004  9.324e-005    -3.895    -4.030    -0.136     (0)  
   SrCO3          1.837e-007  1.947e-007    -6.736    -6.711     0.025    -14.13
   SrOH+          1.596e-011  1.155e-011   -10.797   -10.937    -0.141     (0)  

------------------------------Saturation indices-------------------------------

	Phase               SI   log IAP   log K(298 K,   1 atm)

	Aragonite        -0.14     -8.48   -8.34  CaCO3
	Calcite           0.00     -8.48   -8.48  CaCO3
	CH4(g)          -12.44    -15.28   -2.84  CH4
	CO2(g)            0.24     -1.22   -1.46  CO2
	Dolomite          0.05    -17.04  -17.09  CaMg(CO3)2
	Fluorite          0.00    -10.60  -10.60  CaF2
	H2(g)            -9.67    -12.77   -3.10  H2
	H2O(g)           -1.51     -0.00    1.50  H2O
	Halite           -3.25     -1.68    1.57  NaCl
	O2(g)           -63.96    -66.85   -2.89  O2
	Strontianite     -0.25     -9.52   -9.27  SrCO3
	Sylvite          -4.36     -3.46    0.90  KCl


------------------
End of simulation.
------------------

------------------------------------
Reading input data for simulation 5.
------------------------------------

	MIX
		2	0.0001
	USE pure_phases 2
	USE exchange 2
	END
-----------------------------------------
Beginning of batch-reaction calculations.
-----------------------------------------

Reaction step 1.

Using mix 1.	
Using exchange 2.	Exchange assemblage after simulation 1.
Using pure phase assemblage 2.	

Mixture 1.	

	 1.000e-004 Solution 2	                                                       

-------------------------------Phase assemblage--------------------------------

                                                      Moles in assemblage
Phase               SI  log IAP  log K(T, P)   Initial       Final       Delta

Calcite           0.00    -8.48     -8.48   1.000e-001  1.000e-001 -4.746e-006
Fluorite          0.00   -10.60    -10.60   1.000e-001  1.000e-001 -9.188e-009

-----------------------------Exchange composition------------------------------

X               1.065e+000 mol

	                               Equiv-    Equivalent      Log 
	Species             Moles      alents      Fraction     Gamma

	NaX              7.251e-001  7.251e-001  6.806e-001     0.000
	CaX2             9.157e-002  1.831e-001  1.719e-001     0.000
	KX               7.889e-002  7.889e-002  7.405e-002     0.000
	MgX2             3.131e-002  6.263e-002  5.879e-002     0.000
	SrX2             7.788e-003  1.558e-002  1.462e-002     0.000
	HX               2.498e-005  2.498e-005  2.345e-005     0.000

-----------------------------Solution composition------------------------------

	Elements           Molality       Moles

	C                4.745e-002  4.747e-006
	Ca               7.343e-003  7.345e-007
	Cl               1.999e-001  2.000e-005
	F                1.847e-004  1.848e-008
	K                3.378e-003  3.379e-007
	Mg               5.662e-003  5.664e-007
	Na               1.991e-001  1.991e-005
	Sr               6.856e-004  6.858e-008

----------------------------Description of solution----------------------------

                                       pH  =   6.307      Charge balance
                                       pe  =  12.473      Adjusted to redox equilibrium
       Specific Conductance (uS/cm, 25 oC) = 22361
                          Density (g/cm3)  =   1.00730
                               Volume (L)  =   0.00010
                        Activity of water  =   0.992
                           Ionic strength  =  2.355e-001
                       Mass of water (kg)  =  1.000e-004
                 Total alkalinity (eq/kg)  =  2.969e-002
                       Total CO2 (mol/kg)  =  4.745e-002
                      Temperature (deg C)  =  25.00
                  Electrical balance (eq)  =  5.550e-014
 Percent error, 100*(Cat-|An|)/(Cat+|An|)  =   0.00
                               Iterations  =  64
                                  Total H  = 1.110777e-002
                                  Total O  = 5.564861e-003

----------------------------Distribution of species----------------------------

                                               Log       Log       Log    mole V
   Species          Molality    Activity  Molality  Activity     Gamma   cm3/mol

   H+             6.231e-007  4.931e-007    -6.205    -6.307    -0.102      0.00
   OH-            2.936e-008  2.037e-008    -7.532    -7.691    -0.159     -3.42
   H2O            5.551e+001  9.922e-001     1.744    -0.003     0.000     18.07
C(-4)        0.000e+000
   CH4            0.000e+000  0.000e+000  -127.591  -127.567     0.024     32.22
C(4)         4.745e-002
   HCO3-          2.281e-002  1.679e-002    -1.642    -1.775    -0.133     25.90
   CO2            1.777e-002  1.876e-002    -1.750    -1.727     0.024     30.26
   NaHCO3         5.718e-003  6.036e-003    -2.243    -2.219     0.024     19.41
   CaHCO3+        5.946e-004  4.443e-004    -3.226    -3.352    -0.127      9.89
   MgHCO3+        4.756e-004  3.358e-004    -3.323    -3.474    -0.151      5.73
   SrHCO3+        6.671e-005  4.911e-005    -4.176    -4.309    -0.133     (0)  
   CO3-2          5.437e-006  1.597e-006    -5.265    -5.797    -0.532     -2.29
   CaCO3          5.271e-006  5.565e-006    -5.278    -5.255     0.024    -14.60
   MgCO3          2.468e-006  2.605e-006    -5.608    -5.584     0.024    -17.09
   NaCO3-         1.387e-006  1.021e-006    -5.858    -5.991    -0.133      0.36
   SrCO3          1.847e-007  1.950e-007    -6.734    -6.710     0.024    -14.13
Ca           7.343e-003
   Ca+2           6.743e-003  2.074e-003    -2.171    -2.683    -0.512    -17.15
   CaHCO3+        5.946e-004  4.443e-004    -3.226    -3.352    -0.127      9.89
   CaCO3          5.271e-006  5.565e-006    -5.278    -5.255     0.024    -14.60
   CaOH+          9.357e-010  6.927e-010    -9.029    -9.159    -0.131     (0)  
Cl           1.999e-001
   Cl-            1.999e-001  1.406e-001    -0.699    -0.852    -0.153     18.49
F            1.847e-004
   F-             1.587e-004  1.101e-004    -3.799    -3.958    -0.159     -0.96
   MgF+           1.732e-005  1.243e-005    -4.761    -4.905    -0.144    -10.34
   NaF            8.587e-006  9.066e-006    -5.066    -5.043     0.024      7.26
   HF             7.711e-008  8.141e-008    -7.113    -7.089     0.024     12.50
   HF2-           4.645e-011  3.439e-011   -10.333   -10.464    -0.131     22.49
H(0)         0.000e+000
   H2             0.000e+000  0.000e+000   -40.733   -40.709     0.024     28.61
K            3.378e-003
   K+             3.378e-003  2.362e-003    -2.471    -2.627    -0.155      9.37
Mg           5.662e-003
   Mg+2           5.166e-003  1.709e-003    -2.287    -2.767    -0.480    -20.86
   MgHCO3+        4.756e-004  3.358e-004    -3.323    -3.474    -0.151      5.73
   MgF+           1.732e-005  1.243e-005    -4.761    -4.905    -0.144    -10.34
   MgCO3          2.468e-006  2.605e-006    -5.608    -5.584     0.024    -17.09
   MgOH+          1.652e-008  1.249e-008    -7.782    -7.903    -0.122     (0)  
Na           1.991e-001
   Na+            1.933e-001  1.431e-001    -0.714    -0.844    -0.131     -0.92
   NaHCO3         5.718e-003  6.036e-003    -2.243    -2.219     0.024     19.41
   NaF            8.587e-006  9.066e-006    -5.066    -5.043     0.024      7.26
   NaCO3-         1.387e-006  1.021e-006    -5.858    -5.991    -0.133      0.36
   NaOH           2.761e-019  2.915e-019   -18.559   -18.535     0.024     (0)  
O(0)         2.039e-011
   O2             1.020e-011  1.076e-011   -10.992   -10.968     0.024     30.40
Sr           6.856e-004
   Sr+2           6.187e-004  1.912e-004    -3.209    -3.719    -0.510    -16.90
   SrHCO3+        6.671e-005  4.911e-005    -4.176    -4.309    -0.133     (0)  
   SrCO3          1.847e-007  1.950e-007    -6.734    -6.710     0.024    -14.13
   SrOH+          2.710e-011  1.973e-011   -10.567   -10.705    -0.138     (0)  

------------------------------Saturation indices-------------------------------

	Phase               SI   log IAP   log K(298 K,   1 atm)

	Aragonite        -0.14     -8.48   -8.34  CaCO3
	Calcite           0.00     -8.48   -8.48  CaCO3
	CH4(g)         -124.72   -127.57   -2.84  CH4
	CO2(g)           -0.27     -1.73   -1.46  CO2
	Dolomite          0.05    -17.04  -17.09  CaMg(CO3)2
	Fluorite          0.00    -10.60  -10.60  CaF2
	H2(g)           -37.61    -40.71   -3.10  H2
	H2O(g)           -1.51     -0.00    1.50  H2O
	Halite           -3.27     -1.70    1.57  NaCl
	O2(g)            -8.08    -10.97   -2.89  O2
	Strontianite     -0.24     -9.52   -9.27  SrCO3
	Sylvite          -4.38     -3.48    0.90  KCl


------------------
End of simulation.
------------------

------------------------------------
Reading input data for simulation 6.
------------------------------------

	MIX
		2	0.00001
	USE pure_phases 2
	USE exchange 2
	END
-----------------------------------------
Beginning of batch-reaction calculations.
-----------------------------------------

Reaction step 1.

Using mix 1.	
Using exchange 2.	Exchange assemblage after simulation 1.
Using pure phase assemblage 2.	

Mixture 1.	

	 1.000e-005 Solution 2	                                                       

-------------------------------Phase assemblage--------------------------------

                                                      Moles in assemblage
Phase               SI  log IAP  log K(T, P)   Initial       Final       Delta

Calcite           0.00    -8.48     -8.48   1.000e-001  1.000e-001 -2.112e-007
Fluorite          0.00   -10.60    -10.60   1.000e-001  1.000e-001 -8.950e-010

-----------------------------Exchange composition------------------------------

X               1.065e+000 mol

	                               Equiv-    Equivalent      Log 
	Species             Moles      alents      Fraction     Gamma

	NaX              7.251e-001  7.251e-001  6.806e-001     0.000
	CaX2             9.157e-002  1.831e-001  1.719e-001     0.000
	KX               7.889e-002  7.889e-002  7.405e-002     0.000
	MgX2             3.132e-002  6.263e-002  5.879e-002     0.000
	SrX2             7.789e-003  1.558e-002  1.462e-002     0.000
	HX               1.324e-005  1.324e-005  1.243e-005     0.000

-----------------------------Solution composition------------------------------

	Elements           Molality       Moles

	C                2.113e-002  2.113e-007
	Ca               6.493e-003  6.493e-008
	Cl               2.000e-001  2.000e-006
	F                1.890e-004  1.890e-009
	K                3.239e-003  3.239e-008
	Mg               5.011e-003  5.012e-008
	Na               1.889e-001  1.889e-006
	Sr               6.014e-004  6.015e-009

----------------------------Description of solution----------------------------

                                       pH  =   6.599      Charge balance
                                       pe  =  12.013      Adjusted to redox equilibrium
       Specific Conductance (uS/cm, 25 oC) = 21633
                          Density (g/cm3)  =   1.00632
                               Volume (L)  =   0.00001
                        Activity of water  =   0.993
                           Ionic strength  =  2.242e-001
                       Mass of water (kg)  =  1.000e-005
                 Total alkalinity (eq/kg)  =  1.614e-002
                       Total CO2 (mol/kg)  =  2.113e-002
                      Temperature (deg C)  =  25.00
                  Electrical balance (eq)  =  5.561e-015
 Percent error, 100*(Cat-|An|)/(Cat+|An|)  =   0.00
                               Iterations  =  43
                                  Total H  = 1.110386e-003
                                  Total O  = 5.556962e-004

----------------------------Distribution of species----------------------------

                                               Log       Log       Log    mole V
   Species          Molality    Activity  Molality  Activity     Gamma   cm3/mol

   H+             3.177e-007  2.520e-007    -6.498    -6.599    -0.101      0.00
   OH-            5.716e-008  3.988e-008    -7.243    -7.399    -0.156     -3.45
   H2O            5.551e+001  9.928e-001     1.744    -0.003     0.000     18.07
C(-4)        0.000e+000
   CH4            0.000e+000  0.000e+000  -126.801  -126.778     0.022     32.22
C(4)         2.113e-002
   HCO3-          1.249e-002  9.235e-003    -1.903    -2.035    -0.131     25.85
   CO2            5.005e-003  5.270e-003    -2.301    -2.278     0.022     30.26
   NaHCO3         3.039e-003  3.200e-003    -2.517    -2.495     0.022     19.41
   CaHCO3+        3.028e-004  2.271e-004    -3.519    -3.644    -0.125      9.89
   MgHCO3+        2.418e-004  1.716e-004    -3.617    -3.765    -0.149      5.72
   SrHCO3+        3.396e-005  2.510e-005    -4.469    -4.600    -0.131     (0)  
   CO3-2          5.757e-006  1.719e-006    -5.240    -5.765    -0.525     -2.35
   CaCO3          5.285e-006  5.565e-006    -5.277    -5.255     0.022    -14.60
   MgCO3          2.474e-006  2.605e-006    -5.607    -5.584     0.022    -17.09
   NaCO3-         1.433e-006  1.059e-006    -5.844    -5.975    -0.131      0.32
   SrCO3          1.852e-007  1.950e-007    -6.732    -6.710     0.022    -14.13
Ca           6.493e-003
   Ca+2           6.185e-003  1.927e-003    -2.209    -2.715    -0.506    -17.17
   CaHCO3+        3.028e-004  2.271e-004    -3.519    -3.644    -0.125      9.89
   CaCO3          5.285e-006  5.565e-006    -5.277    -5.255     0.022    -14.60
   CaOH+          1.698e-009  1.260e-009    -8.770    -8.900    -0.130     (0)  
Cl           2.000e-001
   Cl-            2.000e-001  1.414e-001    -0.699    -0.850    -0.151     18.48
F            1.890e-004
   F-             1.637e-004  1.142e-004    -3.786    -3.942    -0.156     -0.97
   MgF+           1.662e-005  1.199e-005    -4.779    -4.921    -0.142    -10.34
   NaF            8.610e-006  9.066e-006    -5.065    -5.043     0.022      7.26
   HF             4.099e-008  4.316e-008    -7.387    -7.365     0.022     12.50
   HF2-           2.549e-011  1.891e-011   -10.594   -10.723    -0.130     22.48
H(0)         0.000e+000
   H2             0.000e+000  0.000e+000   -40.397   -40.374     0.022     28.61
K            3.239e-003
   K+             3.239e-003  2.277e-003    -2.490    -2.643    -0.153      9.36
Mg           5.011e-003
   Mg+2           4.750e-003  1.588e-003    -2.323    -2.799    -0.476    -20.88
   MgHCO3+        2.418e-004  1.716e-004    -3.617    -3.765    -0.149      5.72
   MgF+           1.662e-005  1.199e-005    -4.779    -4.921    -0.142    -10.34
   MgCO3          2.474e-006  2.605e-006    -5.607    -5.584     0.022    -17.09
   MgOH+          2.996e-008  2.272e-008    -7.523    -7.644    -0.120     (0)  
Na           1.889e-001
   Na+            1.858e-001  1.380e-001    -0.731    -0.860    -0.129     -0.93
   NaHCO3         3.039e-003  3.200e-003    -2.517    -2.495     0.022     19.41
   NaF            8.610e-006  9.066e-006    -5.065    -5.043     0.022      7.26
   NaCO3-         1.433e-006  1.059e-006    -5.844    -5.975    -0.131      0.32
   NaOH           5.225e-019  5.502e-019   -18.282   -18.260     0.022     (0)  
O(0)         4.371e-012
   O2             2.186e-012  2.301e-012   -11.660   -11.638     0.022     30.40
Sr           6.014e-004
   Sr+2           5.673e-004  1.777e-004    -3.246    -3.750    -0.504    -16.91
   SrHCO3+        3.396e-005  2.510e-005    -4.469    -4.600    -0.131     (0)  
   SrCO3          1.852e-007  1.950e-007    -6.732    -6.710     0.022    -14.13
   SrOH+          4.909e-011  3.591e-011   -10.309   -10.445    -0.136     (0)  

------------------------------Saturation indices-------------------------------

	Phase               SI   log IAP   log K(298 K,   1 atm)

	Aragonite        -0.14     -8.48   -8.34  CaCO3
	Calcite           0.00     -8.48   -8.48  CaCO3
	CH4(g)         -123.94   -126.78   -2.84  CH4
	CO2(g)           -0.82     -2.28   -1.46  CO2
	Dolomite          0.05    -17.04  -17.09  CaMg(CO3)2
	Fluorite          0.00    -10.60  -10.60  CaF2
	H2(g)           -37.27    -40.37   -3.10  H2
	H2O(g)           -1.51     -0.00    1.50  H2O
	Halite           -3.28     -1.71    1.57  NaCl
	O2(g)            -8.75    -11.64   -2.89  O2
	Strontianite     -0.24     -9.52   -9.27  SrCO3
	Sylvite          -4.39     -3.49    0.90  KCl


------------------
End of simulation.
------------------

------------------------------------
Reading input data for simulation 7.
------------------------------------

	MIX
		2	0.000001
	USE pure_phases 2
	USE exchange 2
	END
-----------------------------------------
Beginning of batch-reaction calculations.
-----------------------------------------

Reaction step 1.

Using mix 1.	
Using exchange 2.	Exchange assemblage after simulation 1.
Using pure phase assemblage 2.	

Mixture 1.	

	 1.000e-006 Solution 2	                                                       

-------------------------------Phase assemblage--------------------------------

                                                      Moles in assemblage
Phase               SI  log IAP  log K(T, P)   Initial       Final       Delta

Calcite           0.00    -8.48     -8.48   1.000e-001  1.000e-001 -1.807e-008
Fluorite          0.00   -10.60    -10.60   1.000e-001  1.000e-001 -4.481e-011

-----------------------------Exchange composition------------------------------

X               1.065e+000 mol

	                               Equiv-    Equivalent      Log 
	Species             Moles      alents      Fraction     Gamma

	NaX              7.251e-001  7.251e-001  6.806e-001     0.000
	CaX2             9.157e-002  1.831e-001  1.719e-001     0.000
	KX               7.889e-002  7.889e-002  7.405e-002     0.000
	MgX2             3.132e-002  6.263e-002  5.879e-002     0.000
	SrX2             7.789e-003  1.558e-002  1.462e-002     0.000
	HX               1.168e-005  1.168e-005  1.097e-005     0.000

-----------------------------Solution composition------------------------------

	Elements           Molality       Moles

	C                1.817e-002  1.817e-008
	Ca               6.380e-003  6.380e-009
	Cl               2.000e-001  2.000e-007
	F                1.896e-004  1.896e-010
	K                3.219e-003  3.220e-009
	Mg               4.925e-003  4.925e-009
	Na               1.875e-001  1.875e-007
	Sr               5.903e-004  5.903e-010

----------------------------Description of solution----------------------------

                                       pH  =   6.655      Charge balance
                                       pe  =  12.146      Adjusted to redox equilibrium
       Specific Conductance (uS/cm, 25 oC) = 21532
                          Density (g/cm3)  =   1.00619
                               Volume (L)  =   0.00000
                        Activity of water  =   0.993
                           Ionic strength  =  2.226e-001
                       Mass of water (kg)  =  1.000e-006
                 Total alkalinity (eq/kg)  =  1.429e-002
                       Total CO2 (mol/kg)  =  1.817e-002
                      Temperature (deg C)  =  25.00
                  Electrical balance (eq)  =  5.082e-016
 Percent error, 100*(Cat-|An|)/(Cat+|An|)  =   0.00
                               Iterations  =  83
                                  Total H  = 1.110345e-004
                                  Total O  = 5.556074e-005

----------------------------Distribution of species----------------------------

                                               Log       Log       Log    mole V
   Species          Molality    Activity  Molality  Activity     Gamma   cm3/mol

   H+             2.787e-007  2.211e-007    -6.555    -6.655    -0.100      0.00
   OH-            6.509e-008  4.545e-008    -7.186    -7.342    -0.156     -3.45
   H2O            5.551e+001  9.929e-001     1.744    -0.003     0.000     18.07
C(-4)        0.000e+000
   CH4            0.000e+000  0.000e+000  -128.421  -128.399     0.022     32.22
C(4)         1.817e-002
   HCO3-          1.107e-002  8.190e-003    -1.956    -2.087    -0.131     25.84
   CO2            3.896e-003  4.101e-003    -2.409    -2.387     0.022     30.26
   NaHCO3         2.682e-003  2.823e-003    -2.572    -2.549     0.022     19.41
   CaHCO3+        2.655e-004  1.993e-004    -3.576    -3.701    -0.125      9.89
   MgHCO3+        2.120e-004  1.506e-004    -3.674    -3.822    -0.149      5.72
   SrHCO3+        2.978e-005  2.203e-005    -4.526    -4.657    -0.131     (0)  
   CO3-2          5.805e-006  1.737e-006    -5.236    -5.760    -0.524     -2.36
   CaCO3          5.287e-006  5.565e-006    -5.277    -5.255     0.022    -14.60
   MgCO3          2.475e-006  2.605e-006    -5.606    -5.584     0.022    -17.09
   NaCO3-         1.440e-006  1.065e-006    -5.842    -5.973    -0.131      0.31
   SrCO3          1.852e-007  1.950e-007    -6.732    -6.710     0.022    -14.13
Ca           6.380e-003
   Ca+2           6.109e-003  1.907e-003    -2.214    -2.720    -0.506    -17.17
   CaHCO3+        2.655e-004  1.993e-004    -3.576    -3.701    -0.125      9.89
   CaCO3          5.287e-006  5.565e-006    -5.277    -5.255     0.022    -14.60
   CaOH+          1.915e-009  1.421e-009    -8.718    -8.847    -0.129     (0)  
Cl           2.000e-001
   Cl-            2.000e-001  1.415e-001    -0.699    -0.849    -0.150     18.48
F            1.896e-004
   F-             1.644e-004  1.148e-004    -3.784    -3.940    -0.156     -0.97
   MgF+           1.652e-005  1.192e-005    -4.782    -4.924    -0.142    -10.34
   NaF            8.613e-006  9.066e-006    -5.065    -5.043     0.022      7.26
   HF             3.617e-008  3.807e-008    -7.442    -7.419     0.022     12.50
   HF2-           2.259e-011  1.677e-011   -10.646   -10.775    -0.129     22.48
H(0)         0.000e+000
   H2             0.000e+000  0.000e+000   -40.774   -40.752     0.022     28.61
K            3.219e-003
   K+             3.219e-003  2.265e-003    -2.492    -2.645    -0.153      9.36
Mg           4.925e-003
   Mg+2           4.694e-003  1.572e-003    -2.328    -2.804    -0.475    -20.88
   MgHCO3+        2.120e-004  1.506e-004    -3.674    -3.822    -0.149      5.72
   MgF+           1.652e-005  1.192e-005    -4.782    -4.924    -0.142    -10.34
   MgCO3          2.475e-006  2.605e-006    -5.606    -5.584     0.022    -17.09
   MgOH+          3.377e-008  2.563e-008    -7.471    -7.591    -0.120     (0)  
Na           1.875e-001
   Na+            1.848e-001  1.372e-001    -0.733    -0.863    -0.129     -0.94
   NaHCO3         2.682e-003  2.823e-003    -2.572    -2.549     0.022     19.41
   NaF            8.613e-006  9.066e-006    -5.065    -5.043     0.022      7.26
   NaCO3-         1.440e-006  1.065e-006    -5.842    -5.973    -0.131      0.31
   NaOH           5.925e-019  6.237e-019   -18.227   -18.205     0.022     (0)  
O(0)         2.492e-011
   O2             1.246e-011  1.312e-011   -10.904   -10.882     0.022     30.40
Sr           5.903e-004
   Sr+2           5.603e-004  1.758e-004    -3.252    -3.755    -0.503    -16.91
   SrHCO3+        2.978e-005  2.203e-005    -4.526    -4.657    -0.131     (0)  
   SrCO3          1.852e-007  1.950e-007    -6.732    -6.710     0.022    -14.13
   SrOH+          5.533e-011  4.049e-011   -10.257   -10.393    -0.136     (0)  

------------------------------Saturation indices-------------------------------

	Phase               SI   log IAP   log K(298 K,   1 atm)

	Aragonite        -0.14     -8.48   -8.34  CaCO3
	Calcite           0.00     -8.48   -8.48  CaCO3
	CH4(g)         -125.56   -128.40   -2.84  CH4
	CO2(g)           -0.93     -2.39   -1.46  CO2
	Dolomite          0.05    -17.04  -17.09  CaMg(CO3)2
	Fluorite          0.00    -10.60  -10.60  CaF2
	H2(g)           -37.65    -40.75   -3.10  H2
	H2O(g)           -1.51     -0.00    1.50  H2O
	Halite           -3.28     -1.71    1.57  NaCl
	O2(g)            -7.99    -10.88   -2.89  O2
	Strontianite     -0.24     -9.52   -9.27  SrCO3
	Sylvite          -4.39     -3.49    0.90  KCl


------------------
End of simulation.
------------------

------------------------------------
Reading input data for simulation 8.
------------------------------------

	MIX
		2	0.0000001
	USE pure_phases 2
	USE exchange 2
	END
-----------------------------------------
Beginning of batch-reaction calculations.
-----------------------------------------

Reaction step 1.

Using mix 1.	
Using exchange 2.	Exchange assemblage after simulation 1.
Using pure phase assemblage 2.	

Mixture 1.	

	 1.000e-007 Solution 2	                                                       

-------------------------------Phase assemblage--------------------------------

                                                      Moles in assemblage
Phase               SI  log IAP  log K(T, P)   Initial       Final       Delta

Calcite           0.00    -8.48     -8.48   1.000e-001  1.000e-001 -1.688e-009
Fluorite          0.00   -10.60    -10.60   1.000e-001  1.000e-001  4.052e-011

-----------------------------Exchange composition------------------------------

X               1.065e+000 mol

	                               Equiv-    Equivalent      Log 
	Species             Moles      alents      Fraction     Gamma

	NaX              7.251e-001  7.251e-001  6.806e-001     0.000
	CaX2             9.157e-002  1.831e-001  1.719e-001     0.000
	KX               7.889e-002  7.889e-002  7.405e-002     0.000
	MgX2             3.132e-002  6.263e-002  5.879e-002     0.000
	SrX2             7.789e-003  1.558e-002  1.462e-002     0.000
	HX               1.152e-005  1.152e-005  1.082e-005     0.000

-----------------------------Solution composition------------------------------

	Elements           Molality       Moles

	C                1.788e-002  1.788e-009
	Ca               6.368e-003  6.369e-010
	Cl               2.000e-001  2.000e-008
	F                1.897e-004  1.897e-011
	K                3.217e-003  3.218e-010
	Mg               4.916e-003  4.916e-010
	Na               1.873e-001  1.873e-008
	Sr               5.891e-004  5.892e-011

----------------------------Description of solution----------------------------

                                       pH  =   6.662      Charge balance
                                       pe  =  12.484      Adjusted to redox equilibrium
       Specific Conductance (uS/cm, 25 oC) = 21522
                          Density (g/cm3)  =   1.00618
                               Volume (L)  =   0.00000
                        Activity of water  =   0.993
                           Ionic strength  =  2.224e-001
                       Mass of water (kg)  =  1.000e-007
                 Total alkalinity (eq/kg)  =  1.410e-002
                       Total CO2 (mol/kg)  =  1.788e-002
                      Temperature (deg C)  =  25.00
                  Electrical balance (eq)  =  5.561e-017
 Percent error, 100*(Cat-|An|)/(Cat+|An|)  =   0.00
                               Iterations  =  91
                                  Total H  = 1.110341e-005
                                  Total O  = 5.555985e-006

----------------------------Distribution of species----------------------------

                                               Log       Log       Log    mole V
   Species          Molality    Activity  Molality  Activity     Gamma   cm3/mol

   H+             2.747e-007  2.180e-007    -6.561    -6.662    -0.100      0.00
   OH-            6.603e-008  4.611e-008    -7.180    -7.336    -0.156     -3.45
   H2O            5.551e+001  9.929e-001     1.744    -0.003     0.000     18.07
C(-4)        0.000e+000
   CH4            0.000e+000  0.000e+000  -131.189  -131.166     0.022     32.22
C(4)         1.788e-002
   HCO3-          1.093e-002  8.082e-003    -1.962    -2.092    -0.131     25.84
   CO2            3.790e-003  3.989e-003    -2.421    -2.399     0.022     30.26
   NaHCO3         2.645e-003  2.784e-003    -2.578    -2.555     0.022     19.41
   CaHCO3+        2.618e-004  1.964e-004    -3.582    -3.707    -0.125      9.89
   MgHCO3+        2.090e-004  1.485e-004    -3.680    -3.828    -0.149      5.72
   SrHCO3+        2.936e-005  2.171e-005    -4.532    -4.663    -0.131     (0)  
   CO3-2          5.810e-006  1.739e-006    -5.236    -5.760    -0.524     -2.36
   CaCO3          5.287e-006  5.565e-006    -5.277    -5.255     0.022    -14.60
   MgCO3          2.475e-006  2.605e-006    -5.606    -5.584     0.022    -17.09
   NaCO3-         1.440e-006  1.065e-006    -5.842    -5.973    -0.131      0.31
   SrCO3          1.852e-007  1.950e-007    -6.732    -6.710     0.022    -14.13
Ca           6.368e-003
   Ca+2           6.101e-003  1.905e-003    -2.215    -2.720    -0.505    -17.17
   CaHCO3+        2.618e-004  1.964e-004    -3.582    -3.707    -0.125      9.89
   CaCO3          5.287e-006  5.565e-006    -5.277    -5.255     0.022    -14.60
   CaOH+          1.940e-009  1.440e-009    -8.712    -8.842    -0.129     (0)  
Cl           2.000e-001
   Cl-            2.000e-001  1.415e-001    -0.699    -0.849    -0.150     18.48
F            1.897e-004
   F-             1.645e-004  1.149e-004    -3.784    -3.940    -0.156     -0.97
   MgF+           1.651e-005  1.192e-005    -4.782    -4.924    -0.142    -10.34
   NaF            8.614e-006  9.066e-006    -5.065    -5.043     0.022      7.26
   HF             3.568e-008  3.755e-008    -7.448    -7.425     0.022     12.50
   HF2-           2.230e-011  1.655e-011   -10.652   -10.781    -0.129     22.48
H(0)         0.000e+000
   H2             0.000e+000  0.000e+000   -41.463   -41.441     0.022     28.61
K            3.217e-003
   K+             3.217e-003  2.264e-003    -2.493    -2.645    -0.153      9.36
Mg           4.916e-003
   Mg+2           4.688e-003  1.570e-003    -2.329    -2.804    -0.475    -20.88
   MgHCO3+        2.090e-004  1.485e-004    -3.680    -3.828    -0.149      5.72
   MgF+           1.651e-005  1.192e-005    -4.782    -4.924    -0.142    -10.34
   MgCO3          2.475e-006  2.605e-006    -5.606    -5.584     0.022    -17.09
   MgOH+          3.422e-008  2.597e-008    -7.466    -7.586    -0.120     (0)  
Na           1.873e-001
   Na+            1.847e-001  1.372e-001    -0.734    -0.863    -0.129     -0.94
   NaHCO3         2.645e-003  2.784e-003    -2.578    -2.555     0.022     19.41
   NaF            8.614e-006  9.066e-006    -5.065    -5.043     0.022      7.26
   NaCO3-         1.440e-006  1.065e-006    -5.842    -5.973    -0.131      0.31
   NaOH           6.008e-019  6.324e-019   -18.221   -18.199     0.022     (0)  
O(0)         5.949e-010
   O2             2.974e-010  3.131e-010    -9.527    -9.504     0.022     30.40
Sr           5.891e-004
   Sr+2           5.596e-004  1.756e-004    -3.252    -3.755    -0.503    -16.91
   SrHCO3+        2.936e-005  2.171e-005    -4.532    -4.663    -0.131     (0)  
   SrCO3          1.852e-007  1.950e-007    -6.732    -6.710     0.022    -14.13
   SrOH+          5.606e-011  4.103e-011   -10.251   -10.387    -0.136     (0)  

------------------------------Saturation indices-------------------------------

	Phase               SI   log IAP   log K(298 K,   1 atm)

	Aragonite        -0.14     -8.48   -8.34  CaCO3
	Calcite           0.00     -8.48   -8.48  CaCO3
	CH4(g)         -128.32   -131.17   -2.84  CH4
	CO2(g)           -0.94     -2.40   -1.46  CO2
	Dolomite          0.05    -17.04  -17.09  CaMg(CO3)2
	Fluorite          0.00    -10.60  -10.60  CaF2
	H2(g)           -38.34    -41.44   -3.10  H2
	H2O(g)           -1.51     -0.00    1.50  H2O
	Halite           -3.28     -1.71    1.57  NaCl
	O2(g)            -6.61     -9.50   -2.89  O2
	Strontianite     -0.24     -9.52   -9.27  SrCO3
	Sylvite          -4.39     -3.49    0.90  KCl


------------------
End of simulation.
------------------

------------------------------------
Reading input data for simulation 9.
------------------------------------

	MIX
		2	0.00000001
	USE pure_phases 2
	USE exchange 2
	END
-----------------------------------------
Beginning of batch-reaction calculations.
-----------------------------------------

Reaction step 1.

Using mix 1.	
Using exchange 2.	Exchange assemblage after simulation 1.
Using pure phase assemblage 2.	

Mixture 1.	

	 1.000e-008 Solution 2	                                                       

-------------------------------Phase assemblage--------------------------------

                                                      Moles in assemblage
Phase               SI  log IAP  log K(T, P)   Initial       Final       Delta

Calcite           0.00    -8.48     -8.48   1.000e-001  1.000e-001 -7.849e-011
Fluorite          0.00   -10.60    -10.60   1.000e-001  1.000e-001  4.905e-011

-----------------------------Exchange composition------------------------------

X               1.065e+000 mol

	                               Equiv-    Equivalent      Log 
	Species             Moles      alents      Fraction     Gamma

	NaX              7.251e-001  7.251e-001  6.806e-001     0.000
	CaX2             9.157e-002  1.831e-001  1.719e-001     0.000
	KX               7.889e-002  7.889e-002  7.405e-002     0.000
	MgX2             3.132e-002  6.263e-002  5.879e-002     0.000
	SrX2             7.789e-003  1.558e-002  1.462e-002     0.000
	HX               1.151e-005  1.151e-005  1.080e-005     0.000

-----------------------------Solution composition------------------------------

	Elements           Molality       Moles

	C                1.785e-002  1.785e-010
	Ca               6.367e-003  6.367e-011
	Cl               2.000e-001  2.000e-009
	F                1.897e-004  1.897e-012
	K                3.217e-003  3.217e-011
	Mg               4.915e-003  4.915e-011
	Na               1.873e-001  1.873e-009
	Sr               5.890e-004  5.891e-012

----------------------------Description of solution----------------------------

                                       pH  =   6.662      Charge balance
                                       pe  =  12.069      Adjusted to redox equilibrium
       Specific Conductance (uS/cm, 25 oC) = 21521
                          Density (g/cm3)  =   1.00618
                               Volume (L)  =   0.00000
                        Activity of water  =   0.993
                           Ionic strength  =  2.224e-001
                       Mass of water (kg)  =  1.000e-008
                 Total alkalinity (eq/kg)  =  1.408e-002
                       Total CO2 (mol/kg)  =  1.785e-002
                      Temperature (deg C)  =  25.00
                  Electrical balance (eq)  =  5.561e-018
 Percent error, 100*(Cat-|An|)/(Cat+|An|)  =   0.00
                               Iterations  =  98
                                  Total H  = 1.110340e-006
                                  Total O  = 5.555976e-007

----------------------------Distribution of species----------------------------

                                               Log       Log       Log    mole V
   Species          Molality    Activity  Molality  Activity     Gamma   cm3/mol

   H+             2.743e-007  2.177e-007    -6.562    -6.662    -0.100      0.00
   OH-            6.612e-008  4.617e-008    -7.180    -7.336    -0.156     -3.45
   H2O            5.551e+001  9.929e-001     1.744    -0.003     0.000     18.07
C(-4)        0.000e+000
   CH4            0.000e+000  0.000e+000  -127.875  -127.852     0.022     32.22
C(4)         1.785e-002
   HCO3-          1.091e-002  8.071e-003    -1.962    -2.093    -0.131     25.84
   CO2            3.779e-003  3.978e-003    -2.423    -2.400     0.022     30.26
   NaHCO3         2.642e-003  2.781e-003    -2.578    -2.556     0.022     19.41
   CaHCO3+        2.614e-004  1.962e-004    -3.583    -3.707    -0.125      9.89
   MgHCO3+        2.087e-004  1.483e-004    -3.680    -3.829    -0.149      5.72
   SrHCO3+        2.931e-005  2.168e-005    -4.533    -4.664    -0.131     (0)  
   CO3-2          5.810e-006  1.739e-006    -5.236    -5.760    -0.524     -2.36
   CaCO3          5.287e-006  5.565e-006    -5.277    -5.255     0.022    -14.60
   MgCO3          2.475e-006  2.605e-006    -5.606    -5.584     0.022    -17.09
   NaCO3-         1.440e-006  1.065e-006    -5.842    -5.973    -0.131      0.31
   SrCO3          1.852e-007  1.950e-007    -6.732    -6.710     0.022    -14.13
Ca           6.367e-003
   Ca+2           6.100e-003  1.905e-003    -2.215    -2.720    -0.505    -17.17
   CaHCO3+        2.614e-004  1.962e-004    -3.583    -3.707    -0.125      9.89
   CaCO3          5.287e-006  5.565e-006    -5.277    -5.255     0.022    -14.60
   CaOH+          1.943e-009  1.442e-009    -8.712    -8.841    -0.129     (0)  
Cl           2.000e-001
   Cl-            2.000e-001  1.415e-001    -0.699    -0.849    -0.150     18.48
F            1.897e-004
   F-             1.645e-004  1.149e-004    -3.784    -3.940    -0.156     -0.97
   MgF+           1.651e-005  1.192e-005    -4.782    -4.924    -0.142    -10.34
   NaF            8.614e-006  9.066e-006    -5.065    -5.043     0.022      7.26
   HF             3.563e-008  3.750e-008    -7.448    -7.426     0.022     12.50
   HF2-           2.227e-011  1.653e-011   -10.652   -10.782    -0.129     22.48
H(0)         0.000e+000
   H2             0.000e+000  0.000e+000   -40.634   -40.612     0.022     28.61
K            3.217e-003
   K+             3.217e-003  2.264e-003    -2.493    -2.645    -0.153      9.36
Mg           4.915e-003
   Mg+2           4.687e-003  1.570e-003    -2.329    -2.804    -0.475    -20.88
   MgHCO3+        2.087e-004  1.483e-004    -3.680    -3.829    -0.149      5.72
   MgF+           1.651e-005  1.192e-005    -4.782    -4.924    -0.142    -10.34
   MgCO3          2.475e-006  2.605e-006    -5.606    -5.584     0.022    -17.09
   MgOH+          3.427e-008  2.600e-008    -7.465    -7.585    -0.120     (0)  
Na           1.873e-001
   Na+            1.846e-001  1.372e-001    -0.734    -0.863    -0.129     -0.94
   NaHCO3         2.642e-003  2.781e-003    -2.578    -2.556     0.022     19.41
   NaF            8.614e-006  9.066e-006    -5.065    -5.043     0.022      7.26
   NaCO3-         1.440e-006  1.065e-006    -5.842    -5.973    -0.131      0.31
   NaOH           6.016e-019  6.333e-019   -18.221   -18.198     0.022     (0)  
O(0)         1.309e-011
   O2             6.544e-012  6.888e-012   -11.184   -11.162     0.022     30.40
Sr           5.890e-004
   Sr+2           5.595e-004  1.756e-004    -3.252    -3.755    -0.503    -16.91
   SrHCO3+        2.931e-005  2.168e-005    -4.533    -4.664    -0.131     (0)  
   SrCO3          1.852e-007  1.950e-007    -6.732    -6.710     0.022    -14.13
   SrOH+          5.614e-011  4.109e-011   -10.251   -10.386    -0.136     (0)  

------------------------------Saturation indices-------------------------------

	Phase               SI   log IAP   log K(298 K,   1 atm)

	Aragonite        -0.14     -8.48   -8.34  CaCO3
	Calcite           0.00     -8.48   -8.48  CaCO3
	CH4(g)         -125.01   -127.85   -2.84  CH4
	CO2(g)           -0.94     -2.40   -1.46  CO2
	Dolomite          0.05    -17.04  -17.09  CaMg(CO3)2
	Fluorite          0.00    -10.60  -10.60  CaF2
	H2(g)           -37.51    -40.61   -3.10  H2
	H2O(g)           -1.51     -0.00    1.50  H2O
	Halite           -3.28     -1.71    1.57  NaCl
	O2(g)            -8.27    -11.16   -2.89  O2
	Strontianite     -0.24     -9.52   -9.27  SrCO3
	Sylvite          -4.39     -3.49    0.90  KCl


------------------
End of simulation.
------------------

-------------------------------------
Reading input data for simulation 10.
-------------------------------------

-------------------------------
End of Run after 0.056 Seconds.
-------------------------------

