WARNING: Database file from DATABASE keyword is used; command line argument ignored.
   Input file: mV_SO4_rho
  Output file: mV_SO4_rho.out
Database file: ../database/phreeqc.dat

------------------
Reading data base.
------------------

	SOLUTION_MASTER_SPECIES
	SOLUTION_SPECIES
	PHASES
	EXCHANGE_MASTER_SPECIES
	EXCHANGE_SPECIES
	SURFACE_MASTER_SPECIES
	SURFACE_SPECIES
	RATES
	END
------------------------------------
Reading input data for simulation 1.
------------------------------------

	DATABASE ../database/phreeqc.dat
	REACTION_TEMPERATURE 1
	 0 250 in 21
	SOLUTION 1
	 units umol/kgw
	 Na 0.6
	 S(6) 0.2 charge
	USER_GRAPH 3
	 -chart_title Na2SO4
	 -plot_csv_file mV_SO4_rho.dat
	-headings -Vm  Monnin_model
	-axis_scale x_axis 270 520
	-axis_scale y_axis -80 20
	-connect false
	-axis_titles "Temperature / K" "molar Volume / cm3/mol"
	 20 mV = Vm("SO4-2") + 2*Vm("Na+")
	 30 plot_xy tk, mV, color = Red, symbol = None, line_width = 2
	 40 a1 = 1.281259e3
	 42 a2 = -3.292342
	   44 a3 = -1.231424e5
	 46 a4 = 0.0
	 48 a5 = 0.0
	 50 a6 = 4.267199e-3
	52 a7 = -9.132116e4
	 54 a8 = -1.067946e3
	 56 a9 = 0.0
	 58 a10 = 0.0
	 60 y = a1 + TK * (a2 + TK * (a6 + TK * (a9 + TK * a10))) + a3/TK + a4*log(TK) +        a5/(TK-263) + a7/(680-TK) + a8/(TK-227)
	 70 plot_xy tk, y, color = Orange, line_width = 0, symbol = XCross
	END
-------------------------------------------
Beginning of initial solution calculations.
-------------------------------------------

Initial solution 1.	

-----------------------------Solution composition------------------------------

	Elements           Molality       Moles

	Na               6.000e-007  6.000e-007
	S(6)             2.994e-007  2.994e-007  Charge balance

----------------------------Description of solution----------------------------

                                       pH  =   7.000    
                                       pe  =   4.000    
       Specific Conductance (uS/cm, 25 oC) = 0
                          Density (g/cm3)  =   0.99704
                               Volume (L)  =   1.00297
                        Activity of water  =   1.000
                           Ionic strength  =  9.995e-007
                       Mass of water (kg)  =  1.000e+000
                 Total alkalinity (eq/kg)  =  1.215e-009
                    Total carbon (mol/kg)  =  0.000e+000
                       Total CO2 (mol/kg)  =  0.000e+000
                      Temperature (deg C)  =  25.00
                  Electrical balance (eq)  = -2.727e-018
 Percent error, 100*(Cat-|An|)/(Cat+|An|)  =  -0.00
                               Iterations  =   8
                                  Total H  = 1.110124e+002
                                  Total O  = 5.550622e+001

----------------------------Distribution of species----------------------------

                                               Log       Log       Log    mole V
   Species          Molality    Activity  Molality  Activity     Gamma   cm3/mol

   OH-            1.013e-007  1.012e-007    -6.994    -6.995    -0.001     -4.14
   H+             1.001e-007  1.000e-007    -6.999    -7.000    -0.001      0.00
   H2O            5.551e+001  1.000e+000     1.744    -0.000     0.000     18.07
H(0)         1.416e-025
   H2             7.079e-026  7.079e-026   -25.150   -25.150     0.000     28.61
Na           6.000e-007
   Na+            6.000e-007  5.993e-007    -6.222    -6.222    -0.001     -1.42
   NaSO4-         8.961e-013  8.950e-013   -12.048   -12.048    -0.001     18.38
   NaOH           6.066e-024  6.066e-024   -23.217   -23.217     0.000     (0)  
O(0)         0.000e+000
   O2             0.000e+000  0.000e+000   -42.080   -42.080     0.000     30.40
S(6)         2.994e-007
   SO4-2          2.994e-007  2.980e-007    -6.524    -6.526    -0.002     13.90
   HSO4-          2.901e-012  2.897e-012   -11.538   -11.538    -0.001     40.25
   NaSO4-         8.961e-013  8.950e-013   -12.048   -12.048    -0.001     18.38

------------------------------Saturation indices-------------------------------

	Phase               SI   log IAP   log K(298 K,   1 atm)

	H2(g)           -22.05    -25.15   -3.10  H2
	H2O(g)           -1.50     -0.00    1.50  H2O
	O2(g)           -39.19    -42.08   -2.89  O2


-----------------------------------------
Beginning of batch-reaction calculations.
-----------------------------------------

Reaction step 1.

Using solution 1.	
Using temperature 1.	

-----------------------------Solution composition------------------------------

	Elements           Molality       Moles

	Na               6.000e-007  6.000e-007
	S                2.994e-007  2.994e-007

----------------------------Description of solution----------------------------

                                       pH  =   7.477      Charge balance
                                       pe  =  -1.873      Adjusted to redox equilibrium
       Specific Conductance (uS/cm, 0 oC) = 0
                          Density (g/cm3)  =   0.99984
                               Volume (L)  =   1.00016
                        Activity of water  =   1.000
                           Ionic strength  =  9.328e-007
                       Mass of water (kg)  =  1.000e+000
                 Total alkalinity (eq/kg)  =  1.215e-009
                    Total carbon (mol/kg)  =  0.000e+000
                       Total CO2 (mol/kg)  =  0.000e+000
                      Temperature (deg C)  =   0.00
                  Electrical balance (eq)  = -2.682e-018
 Percent error, 100*(Cat-|An|)/(Cat+|An|)  =  -0.00
                               Iterations  =  10
                                  Total H  = 1.110124e+002
                                  Total O  = 5.550622e+001

----------------------------Distribution of species----------------------------

                                               Log       Log       Log    mole V
   Species          Molality    Activity  Molality  Activity     Gamma   cm3/mol

   OH-            3.459e-008  3.456e-008    -7.461    -7.461    -0.000     -6.19
   H+             3.338e-008  3.334e-008    -7.477    -7.477    -0.000      0.00
   H2O            5.551e+001  1.000e+000     1.744    -0.000     0.000     18.02
H(0)         1.151e-014
   H2             5.755e-015  5.755e-015   -14.240   -14.240     0.000     28.65
Na           6.000e-007
   Na+            6.000e-007  5.993e-007    -6.222    -6.222    -0.000     -3.42
   NaSO4-         7.540e-013  7.532e-013   -12.123   -12.123    -0.000     17.22
   NaOH           2.071e-024  2.071e-024   -23.684   -23.684     0.000     (0)  
O(0)         0.000e+000
   O2             0.000e+000  0.000e+000   -72.707   -72.707     0.000     27.49
S(-2)        1.240e-021
   HS-            7.088e-022  7.081e-022   -21.149   -21.150    -0.000     18.39
   H2S            5.307e-022  5.307e-022   -21.275   -21.275     0.000     37.01
   S-2            3.974e-028  3.957e-028   -27.401   -27.403    -0.002     (0)  
S(6)         2.994e-007
   SO4-2          2.994e-007  2.981e-007    -6.524    -6.526    -0.002      8.08
   NaSO4-         7.540e-013  7.532e-013   -12.123   -12.123    -0.000     17.22
   HSO4-          5.969e-013  5.963e-013   -12.224   -12.225    -0.000     37.30

------------------------------Saturation indices-------------------------------

	Phase               SI   log IAP   log K(273 K,   1 atm)

	H2(g)           -11.23    -14.24   -3.01  H2
	H2O(g)           -2.21     -0.00    2.21  H2O
	H2S(g)          -20.56    -28.63   -8.07  H2S
	O2(g)           -70.05    -72.71   -2.66  O2
	Sulfur          -15.59    -10.07    5.52  S


Reaction step 2.

Using solution 1.	
Using temperature 1.	

-----------------------------Solution composition------------------------------

	Elements           Molality       Moles

	Na               6.000e-007  6.000e-007
	S                2.994e-007  2.994e-007

----------------------------Description of solution----------------------------

                                       pH  =   7.222      Charge balance
                                       pe  =  -1.651      Adjusted to redox equilibrium
       Specific Conductance (uS/cm, 12 oC) = 0
                          Density (g/cm3)  =   0.99944
                               Volume (L)  =   1.00056
                        Activity of water  =   1.000
                           Ionic strength  =  9.594e-007
                       Mass of water (kg)  =  1.000e+000
                 Total alkalinity (eq/kg)  =  1.215e-009
                    Total carbon (mol/kg)  =  0.000e+000
                       Total CO2 (mol/kg)  =  0.000e+000
                      Temperature (deg C)  =  12.50
                  Electrical balance (eq)  = -2.705e-018
 Percent error, 100*(Cat-|An|)/(Cat+|An|)  =  -0.00
                               Iterations  =  10
                                  Total H  = 1.110124e+002
                                  Total O  = 5.550622e+001

----------------------------Distribution of species----------------------------

                                               Log       Log       Log    mole V
   Species          Molality    Activity  Molality  Activity     Gamma   cm3/mol

   OH-            6.120e-008  6.114e-008    -7.213    -7.214    -0.000     -4.83
   H+             5.999e-008  5.992e-008    -7.222    -7.222    -0.000      0.00
   H2O            5.551e+001  1.000e+000     1.744    -0.000     0.000     18.03
H(0)         1.158e-014
   H2             5.790e-015  5.790e-015   -14.237   -14.237     0.000     28.62
Na           6.000e-007
   Na+            6.000e-007  5.993e-007    -6.222    -6.222    -0.000     -2.20
   NaSO4-         8.251e-013  8.242e-013   -12.083   -12.084    -0.000     18.12
   NaOH           3.664e-024  3.664e-024   -23.436   -23.436     0.000     (0)  
O(0)         0.000e+000
   O2             0.000e+000  0.000e+000   -68.116   -68.116     0.000     29.24
S(-2)        3.245e-023
   HS-            1.805e-023  1.803e-023   -22.743   -22.744    -0.000     19.80
   H2S            1.440e-023  1.440e-023   -22.842   -22.842     0.000     37.10
   S-2            1.494e-029  1.487e-029   -28.826   -28.828    -0.002     (0)  
S(6)         2.994e-007
   SO4-2          2.994e-007  2.980e-007    -6.524    -6.526    -0.002     11.86
   HSO4-          1.343e-012  1.341e-012   -11.872   -11.872    -0.000     39.16
   NaSO4-         8.251e-013  8.242e-013   -12.083   -12.084    -0.000     18.12

------------------------------Saturation indices-------------------------------

	Phase               SI   log IAP   log K(285 K,   1 atm)

	H2(g)           -11.17    -14.24   -3.06  H2
	H2O(g)           -1.84     -0.00    1.84  H2O
	H2S(g)          -21.94    -29.97   -8.03  H2S
	O2(g)           -65.33    -68.12   -2.79  O2
	Sulfur          -16.88    -11.70    5.19  S


Reaction step 3.

Using solution 1.	
Using temperature 1.	

-----------------------------Solution composition------------------------------

	Elements           Molality       Moles

	Na               6.000e-007  6.000e-007
	S                2.994e-007  2.994e-007

----------------------------Description of solution----------------------------

                                       pH  =   7.000      Charge balance
                                       pe  =  -1.461      Adjusted to redox equilibrium
       Specific Conductance (uS/cm, 25 oC) = 0
                          Density (g/cm3)  =   0.99704
                               Volume (L)  =   1.00297
                        Activity of water  =   1.000
                           Ionic strength  =  9.995e-007
                       Mass of water (kg)  =  1.000e+000
                 Total alkalinity (eq/kg)  =  1.215e-009
                    Total carbon (mol/kg)  =  0.000e+000
                       Total CO2 (mol/kg)  =  0.000e+000
                      Temperature (deg C)  =  25.00
                  Electrical balance (eq)  = -2.852e-018
 Percent error, 100*(Cat-|An|)/(Cat+|An|)  =  -0.00
                               Iterations  =  10
                                  Total H  = 1.110124e+002
                                  Total O  = 5.550622e+001

----------------------------Distribution of species----------------------------

                                               Log       Log       Log    mole V
   Species          Molality    Activity  Molality  Activity     Gamma   cm3/mol

   OH-            1.013e-007  1.012e-007    -6.994    -6.995    -0.001     -4.14
   H+             1.001e-007  1.000e-007    -6.999    -7.000    -0.001      0.00
   H2O            5.551e+001  1.000e+000     1.744    -0.000     0.000     18.07
H(0)         1.182e-014
   H2             5.912e-015  5.912e-015   -14.228   -14.228     0.000     28.61
Na           6.000e-007
   Na+            6.000e-007  5.993e-007    -6.222    -6.222    -0.001     -1.42
   NaSO4-         8.961e-013  8.950e-013   -12.048   -12.048    -0.001     18.38
   NaOH           6.066e-024  6.066e-024   -23.217   -23.217     0.000     (0)  
O(0)         0.000e+000
   O2             0.000e+000  0.000e+000   -63.923   -63.923     0.000     30.40
S(-2)        1.214e-024
   HS-            6.481e-025  6.473e-025   -24.188   -24.189    -0.001     20.57
   H2S            5.660e-025  5.660e-025   -24.247   -24.247     0.000     37.16
   S-2            7.855e-031  7.818e-031   -30.105   -30.107    -0.002     (0)  
S(6)         2.994e-007
   SO4-2          2.994e-007  2.980e-007    -6.524    -6.526    -0.002     13.90
   HSO4-          2.901e-012  2.897e-012   -11.538   -11.538    -0.001     40.25
   NaSO4-         8.961e-013  8.950e-013   -12.048   -12.048    -0.001     18.38

------------------------------Saturation indices-------------------------------

	Phase               SI   log IAP   log K(298 K,   1 atm)

	H2(g)           -11.13    -14.23   -3.10  H2
	H2O(g)           -1.50     -0.00    1.50  H2O
	H2S(g)          -23.20    -31.19   -7.99  H2S
	O2(g)           -61.03    -63.92   -2.89  O2
	Sulfur          -18.05    -13.17    4.88  S


Reaction step 4.

Using solution 1.	
Using temperature 1.	

-----------------------------Solution composition------------------------------

	Elements           Molality       Moles

	Na               6.000e-007  6.000e-007
	S                2.994e-007  2.994e-007

----------------------------Description of solution----------------------------

                                       pH  =   6.804      Charge balance
                                       pe  =  -1.296      Adjusted to redox equilibrium
       Specific Conductance (uS/cm, 37 oC) = 0
                          Density (g/cm3)  =   0.99314
                               Volume (L)  =   1.00690
                        Activity of water  =   1.000
                           Ionic strength  =  1.056e-006
                       Mass of water (kg)  =  1.000e+000
                 Total alkalinity (eq/kg)  =  1.215e-009
                    Total carbon (mol/kg)  =  0.000e+000
                       Total CO2 (mol/kg)  =  0.000e+000
                      Temperature (deg C)  =  37.50
                  Electrical balance (eq)  = -3.527e-018
 Percent error, 100*(Cat-|An|)/(Cat+|An|)  =  -0.00
                               Iterations  =  10
                                  Total H  = 1.110124e+002
                                  Total O  = 5.550622e+001

----------------------------Distribution of species----------------------------

                                               Log       Log       Log    mole V
   Species          Molality    Activity  Molality  Activity     Gamma   cm3/mol

   OH-            1.583e-007  1.581e-007    -6.801    -6.801    -0.001     -3.84
   H+             1.571e-007  1.569e-007    -6.804    -6.804    -0.001      0.00
   H2O            5.551e+001  1.000e+000     1.744    -0.000     0.000     18.14
H(0)         1.206e-014
   H2             6.028e-015  6.028e-015   -14.220   -14.220     0.000     28.60
Na           6.000e-007
   Na+            6.000e-007  5.993e-007    -6.222    -6.222    -0.001     -0.87
   NaSO4-         9.667e-013  9.655e-013   -12.015   -12.015    -0.001     18.22
   NaOH           9.473e-024  9.473e-024   -23.024   -23.024     0.000     (0)  
O(0)         0.000e+000
   O2             0.000e+000  0.000e+000   -60.069   -60.069     0.000     31.25
S(-2)        5.913e-026
   HS-            2.983e-026  2.979e-026   -25.525   -25.526    -0.001     20.97
   H2S            2.931e-026  2.931e-026   -25.533   -25.533     0.000     37.21
   S-2            5.243e-032  5.217e-032   -31.280   -31.283    -0.002     (0)  
S(6)         2.994e-007
   SO4-2          2.994e-007  2.979e-007    -6.524    -6.526    -0.002     14.89
   HSO4-          6.054e-012  6.046e-012   -11.218   -11.218    -0.001     40.89
   NaSO4-         9.667e-013  9.655e-013   -12.015   -12.015    -0.001     18.22

------------------------------Saturation indices-------------------------------

	Phase               SI   log IAP   log K(310 K,   1 atm)

	H2(g)           -11.10    -14.22   -3.12  H2
	H2O(g)           -1.20     -0.00    1.20  H2O
	H2S(g)          -24.36    -32.33   -7.97  H2S
	O2(g)           -57.10    -60.07   -2.97  O2
	Sulfur          -19.12    -14.52    4.60  S


Reaction step 5.

Using solution 1.	
Using temperature 1.	

-----------------------------Solution composition------------------------------

	Elements           Molality       Moles

	Na               6.000e-007  6.000e-007
	S                2.994e-007  2.994e-007

----------------------------Description of solution----------------------------

                                       pH  =   6.632      Charge balance
                                       pe  =  -1.147      Adjusted to redox equilibrium
       Specific Conductance (uS/cm, 50 oC) = 0
                          Density (g/cm3)  =   0.98803
                               Volume (L)  =   1.01212
                        Activity of water  =   1.000
                           Ionic strength  =  1.133e-006
                       Mass of water (kg)  =  1.000e+000
                 Total alkalinity (eq/kg)  =  1.215e-009
                    Total carbon (mol/kg)  =  0.000e+000
                       Total CO2 (mol/kg)  =  0.000e+000
                      Temperature (deg C)  =  50.00
                  Electrical balance (eq)  =  1.273e-016
 Percent error, 100*(Cat-|An|)/(Cat+|An|)  =   0.00
                               Iterations  =  10
                                  Total H  = 1.110124e+002
                                  Total O  = 5.550622e+001

----------------------------Distribution of species----------------------------

                                               Log       Log       Log    mole V
   Species          Molality    Activity  Molality  Activity     Gamma   cm3/mol

   OH-            2.349e-007  2.346e-007    -6.629    -6.630    -0.001     -3.83
   H+             2.337e-007  2.333e-007    -6.631    -6.632    -0.001      0.00
   H2O            5.551e+001  1.000e+000     1.744    -0.000     0.000     18.23
H(0)         1.206e-014
   H2             6.029e-015  6.029e-015   -14.220   -14.220     0.000     28.59
Na           6.000e-007
   Na+            6.000e-007  5.992e-007    -6.222    -6.222    -0.001     -0.47
   NaSO4-         1.037e-012  1.035e-012   -11.984   -11.985    -0.001     17.72
   NaOH           1.406e-023  1.406e-023   -22.852   -22.852     0.000     (0)  
O(0)         0.000e+000
   O2             0.000e+000  0.000e+000   -56.497   -56.497     0.000     31.92
S(-2)        3.401e-027
   H2S            1.808e-027  1.808e-027   -26.743   -26.743     0.000     37.24
   HS-            1.593e-027  1.591e-027   -26.798   -26.798    -0.001     21.10
   S-2            4.019e-033  3.998e-033   -32.396   -32.398    -0.002     (0)  
S(6)         2.994e-007
   SO4-2          2.994e-007  2.978e-007    -6.524    -6.526    -0.002     15.15
   HSO4-          1.226e-011  1.225e-011   -10.911   -10.912    -0.001     41.23
   NaSO4-         1.037e-012  1.035e-012   -11.984   -11.985    -0.001     17.72

------------------------------Saturation indices-------------------------------

	Phase               SI   log IAP   log K(323 K,   1 atm)

	H2(g)           -11.08    -14.22   -3.14  H2
	H2O(g)           -0.92     -0.00    0.92  H2O
	H2S(g)          -25.48    -33.43   -7.95  H2S
	O2(g)           -53.47    -56.50   -3.03  O2
	Sulfur          -20.12    -15.77    4.34  S


Reaction step 6.

Using solution 1.	
Using temperature 1.	

-----------------------------Solution composition------------------------------

	Elements           Molality       Moles

	Na               6.000e-007  6.000e-007
	S                2.994e-007  2.994e-007

----------------------------Description of solution----------------------------

                                       pH  =   6.479      Charge balance
                                       pe  =  -1.006      Adjusted to redox equilibrium
       Specific Conductance (uS/cm, 62 oC) = 0
                          Density (g/cm3)  =   0.98189
                               Volume (L)  =   1.01845
                        Activity of water  =   1.000
                           Ionic strength  =  1.231e-006
                       Mass of water (kg)  =  1.000e+000
                 Total alkalinity (eq/kg)  =  1.215e-009
                    Total carbon (mol/kg)  =  0.000e+000
                       Total CO2 (mol/kg)  =  0.000e+000
                      Temperature (deg C)  =  62.50
                  Electrical balance (eq)  = -2.724e-018
 Percent error, 100*(Cat-|An|)/(Cat+|An|)  =  -0.00
                               Iterations  =  11
                                  Total H  = 1.110124e+002
                                  Total O  = 5.550622e+001

----------------------------Distribution of species----------------------------

                                               Log       Log       Log    mole V
   Species          Molality    Activity  Molality  Activity     Gamma   cm3/mol

   OH-            3.332e-007  3.328e-007    -6.477    -6.478    -0.001     -4.06
   H+             3.320e-007  3.315e-007    -6.479    -6.479    -0.001      0.00
   H2O            5.551e+001  1.000e+000     1.744    -0.000     0.000     18.35
H(0)         1.150e-014
   H2             5.752e-015  5.752e-015   -14.240   -14.240     0.000     28.58
Na           6.000e-007
   Na+            6.000e-007  5.992e-007    -6.222    -6.222    -0.001     -0.16
   NaSO4-         1.106e-012  1.104e-012   -11.956   -11.957    -0.001     16.93
   NaOH           1.994e-023  1.994e-023   -22.700   -22.700     0.000     (0)  
O(0)         0.000e+000
   O2             0.000e+000  0.000e+000   -53.150   -53.150     0.000     32.49
S(-2)        2.018e-028
   H2S            1.156e-028  1.156e-028   -27.937   -27.937     0.000     37.26
   HS-            8.618e-029  8.606e-029   -28.065   -28.065    -0.001     21.02
   S-2            3.088e-034  3.070e-034   -33.510   -33.513    -0.002     (0)  
S(6)         2.994e-007
   SO4-2          2.994e-007  2.977e-007    -6.524    -6.526    -0.002     14.85
   HSO4-          2.420e-011  2.416e-011   -10.616   -10.617    -0.001     41.35
   NaSO4-         1.106e-012  1.104e-012   -11.956   -11.957    -0.001     16.93

------------------------------Saturation indices-------------------------------

	Phase               SI   log IAP   log K(335 K,   1 atm)

	H2(g)           -11.10    -14.24   -3.14  H2
	H2O(g)           -0.66     -0.00    0.66  H2O
	H2S(g)          -26.61    -34.54   -7.94  H2S
	O2(g)           -50.08    -53.15   -3.07  O2
	Sulfur          -21.09    -16.99    4.10  S


Reaction step 7.

Using solution 1.	
Using temperature 1.	

-----------------------------Solution composition------------------------------

	Elements           Molality       Moles

	Na               6.000e-007  6.000e-007
	S                2.994e-007  2.994e-007

----------------------------Description of solution----------------------------

                                       pH  =   6.344      Charge balance
                                       pe  =  -0.892      Adjusted to redox equilibrium
       Specific Conductance (uS/cm, 75 oC) = 0
                          Density (g/cm3)  =   0.97484
                               Volume (L)  =   1.02581
                        Activity of water  =   1.000
                           Ionic strength  =  1.352e-006
                       Mass of water (kg)  =  1.000e+000
                 Total alkalinity (eq/kg)  =  1.215e-009
                    Total carbon (mol/kg)  =  0.000e+000
                       Total CO2 (mol/kg)  =  0.000e+000
                      Temperature (deg C)  =  75.00
                  Electrical balance (eq)  = -2.046e-018
 Percent error, 100*(Cat-|An|)/(Cat+|An|)  =  -0.00
                               Iterations  =  11
                                  Total H  = 1.110124e+002
                                  Total O  = 5.550622e+001

----------------------------Distribution of species----------------------------

                                               Log       Log       Log    mole V
   Species          Molality    Activity  Molality  Activity     Gamma   cm3/mol

   OH-            4.544e-007  4.537e-007    -6.343    -6.343    -0.001     -4.48
   H+             4.531e-007  4.524e-007    -6.344    -6.344    -0.001      0.00
   H2O            5.551e+001  1.000e+000     1.744    -0.000     0.000     18.48
H(0)         1.150e-014
   H2             5.750e-015  5.750e-015   -14.240   -14.240     0.000     28.58
Na           6.000e-007
   Na+            6.000e-007  5.991e-007    -6.222    -6.223    -0.001      0.09
   NaSO4-         1.174e-012  1.172e-012   -11.930   -11.931    -0.001     15.84
   NaOH           2.718e-023  2.718e-023   -22.566   -22.566     0.000     (0)  
O(0)         0.000e+000
   O2             0.000e+000  0.000e+000   -50.081   -50.081     0.000     32.99
S(-2)        1.766e-029
   H2S            1.092e-029  1.092e-029   -28.962   -28.962     0.000     37.28
   HS-            6.734e-030  6.724e-030   -29.172   -29.172    -0.001     20.77
   S-2            3.392e-035  3.371e-035   -34.470   -34.472    -0.003     (0)  
S(6)         2.994e-007
   SO4-2          2.993e-007  2.975e-007    -6.524    -6.526    -0.003     14.04
   HSO4-          4.660e-011  4.653e-011   -10.332   -10.332    -0.001     41.29
   NaSO4-         1.174e-012  1.172e-012   -11.930   -11.931    -0.001     15.84

------------------------------Saturation indices-------------------------------

	Phase               SI   log IAP   log K(348 K,   1 atm)

	H2(g)           -11.11    -14.24   -3.13  H2
	H2O(g)           -0.42     -0.00    0.42  H2O
	H2S(g)          -27.59    -35.52   -7.93  H2S
	O2(g)           -46.98    -50.08   -3.10  O2
	Sulfur          -21.94    -18.06    3.88  S


Reaction step 8.

Using solution 1.	
Using temperature 1.	

-----------------------------Solution composition------------------------------

	Elements           Molality       Moles

	Na               6.000e-007  6.000e-007
	S                2.994e-007  2.994e-007

----------------------------Description of solution----------------------------

                                       pH  =   6.225      Charge balance
                                       pe  =  -0.792      Adjusted to redox equilibrium
       Specific Conductance (uS/cm, 87 oC) = 1
                          Density (g/cm3)  =   0.96697
                               Volume (L)  =   1.03416
                        Activity of water  =   1.000
                           Ionic strength  =  1.496e-006
                       Mass of water (kg)  =  1.000e+000
                 Total alkalinity (eq/kg)  =  1.215e-009
                    Total carbon (mol/kg)  =  0.000e+000
                       Total CO2 (mol/kg)  =  0.000e+000
                      Temperature (deg C)  =  87.50
                  Electrical balance (eq)  =  2.822e-016
 Percent error, 100*(Cat-|An|)/(Cat+|An|)  =   0.00
                               Iterations  =  11
                                  Total H  = 1.110124e+002
                                  Total O  = 5.550622e+001

----------------------------Distribution of species----------------------------

                                               Log       Log       Log    mole V
   Species          Molality    Activity  Molality  Activity     Gamma   cm3/mol

   OH-            5.979e-007  5.969e-007    -6.223    -6.224    -0.001     -5.11
   H+             5.966e-007  5.956e-007    -6.224    -6.225    -0.001      0.00
   H2O            5.551e+001  1.000e+000     1.744    -0.000     0.000     18.63
H(0)         1.150e-014
   H2             5.749e-015  5.749e-015   -14.240   -14.240     0.000     28.57
Na           6.000e-007
   Na+            6.000e-007  5.990e-007    -6.222    -6.223    -0.001      0.28
   NaSO4-         1.241e-012  1.239e-012   -11.906   -11.907    -0.001     14.45
   NaOH           3.576e-023  3.576e-023   -22.447   -22.447     0.000     (0)  
O(0)         0.000e+000
   O2             0.000e+000  0.000e+000   -47.224   -47.224     0.000     33.45
S(-2)        1.858e-030
   H2S            1.239e-030  1.239e-030   -29.907   -29.907     0.000     37.29
   HS-            6.191e-031  6.181e-031   -30.208   -30.209    -0.001     20.36
   S-2            4.345e-036  4.316e-036   -35.362   -35.365    -0.003     (0)  
S(6)         2.994e-007
   SO4-2          2.993e-007  2.974e-007    -6.524    -6.527    -0.003     12.75
   HSO4-          8.779e-011  8.764e-011   -10.057   -10.057    -0.001     41.06
   NaSO4-         1.241e-012  1.239e-012   -11.906   -11.907    -0.001     14.45

------------------------------Saturation indices-------------------------------

	Phase               SI   log IAP   log K(360 K,   1 atm)

	H2(g)           -11.12    -14.24   -3.12  H2
	H2O(g)           -0.21     -0.00    0.21  H2O
	H2S(g)          -28.50    -36.43   -7.93  H2S
	O2(g)           -44.11    -47.22   -3.11  O2
	Sulfur          -22.72    -19.04    3.68  S


Reaction step 9.

Using solution 1.	
Using temperature 1.	

-----------------------------Solution composition------------------------------

	Elements           Molality       Moles

	Na               6.000e-007  6.000e-007
	S                2.994e-007  2.994e-007

----------------------------Description of solution----------------------------

                                       pH  =   6.120      Charge balance
                                       pe  =  -0.704      Adjusted to redox equilibrium
       Specific Conductance (uS/cm, 100 oC) = 1
                          Density (g/cm3)  =   0.95835
                               Volume (L)  =   1.04346
                        Activity of water  =   1.000
                           Ionic strength  =  1.660e-006
                       Mass of water (kg)  =  1.000e+000
                 Total alkalinity (eq/kg)  =  1.215e-009
                    Total carbon (mol/kg)  =  0.000e+000
                       Total CO2 (mol/kg)  =  0.000e+000
                      Temperature (deg C)  = 100.00
                  Electrical balance (eq)  = -2.726e-018
 Percent error, 100*(Cat-|An|)/(Cat+|An|)  =  -0.00
                               Iterations  =  12
                                  Total H  = 1.110124e+002
                                  Total O  = 5.550622e+001

----------------------------Distribution of species----------------------------

                                               Log       Log       Log    mole V
   Species          Molality    Activity  Molality  Activity     Gamma   cm3/mol

   OH-            7.621e-007  7.607e-007    -6.118    -6.119    -0.001     -5.96
   H+             7.607e-007  7.594e-007    -6.119    -6.120    -0.001      0.00
   H2O            5.551e+001  1.000e+000     1.744    -0.000     0.000     18.80
H(0)         1.150e-014
   H2             5.748e-015  5.748e-015   -14.240   -14.240     0.000     28.57
Na           6.000e-007
   Na+            6.000e-007  5.989e-007    -6.222    -6.223    -0.001      0.45
   NaSO4-         1.306e-012  1.304e-012   -11.884   -11.885    -0.001     12.72
   NaOH           4.556e-023  4.556e-023   -22.341   -22.341     0.000     (0)  
O(0)         0.000e+000
   O2             0.000e+000  0.000e+000   -44.560   -44.560     0.000     33.90
S(-2)        2.315e-031
   H2S            1.656e-031  1.656e-031   -30.781   -30.781     0.000     37.31
   HS-            6.588e-032  6.576e-032   -31.181   -31.182    -0.001     19.76
   S-2            6.386e-037  6.341e-037   -36.195   -36.198    -0.003     (0)  
S(6)         2.994e-007
   SO4-2          2.992e-007  2.971e-007    -6.524    -6.527    -0.003     10.97
   HSO4-          1.620e-010  1.617e-010    -9.791    -9.791    -0.001     40.67
   NaSO4-         1.306e-012  1.304e-012   -11.884   -11.885    -0.001     12.72

------------------------------Saturation indices-------------------------------

	Phase               SI   log IAP   log K(373 K,   1 atm)

	H2(g)           -11.14    -14.24   -3.10  H2
	H2O(g)           -0.00     -0.00    0.00  H2O
	H2S(g)          -29.36    -37.30   -7.94  H2S
	O2(g)           -41.44    -44.56   -3.11  O2
	Sulfur          -23.43    -19.95    3.48  S


Reaction step 10.

Using solution 1.	
Using temperature 1.	

-----------------------------Solution composition------------------------------

	Elements           Molality       Moles

	Na               6.000e-007  6.000e-007
	S                2.994e-007  2.994e-007

----------------------------Description of solution----------------------------

                                       pH  =   6.027      Charge balance
                                       pe  =  -0.628      Adjusted to redox equilibrium
       Specific Conductance (uS/cm, 112 oC) = 2
                          Density (g/cm3)  =   0.94903
                               Volume (L)  =   1.05371
                        Activity of water  =   1.000
                           Ionic strength  =  1.841e-006
                       Mass of water (kg)  =  1.000e+000
                 Total alkalinity (eq/kg)  =  1.215e-009
                    Total carbon (mol/kg)  =  0.000e+000
                       Total CO2 (mol/kg)  =  0.000e+000
                      Temperature (deg C)  = 112.50
                           Pressure (atm)  =  1.54
                  Electrical balance (eq)  = -2.721e-018
 Percent error, 100*(Cat-|An|)/(Cat+|An|)  =  -0.00
                               Iterations  =  12
                                  Total H  = 1.110124e+002
                                  Total O  = 5.550622e+001

----------------------------Distribution of species----------------------------

                                               Log       Log       Log    mole V
   Species          Molality    Activity  Molality  Activity     Gamma   cm3/mol

   OH-            9.439e-007  9.421e-007    -6.025    -6.026    -0.001     -7.04
   H+             9.424e-007  9.406e-007    -6.026    -6.027    -0.001      0.00
   H2O            5.551e+001  1.000e+000     1.744    -0.000     0.000     18.98
H(0)         1.150e-014
   H2             5.748e-015  5.748e-015   -14.240   -14.240     0.000     28.57
Na           6.000e-007
   Na+            6.000e-007  5.988e-007    -6.222    -6.223    -0.001      0.59
   NaSO4-         1.370e-012  1.368e-012   -11.863   -11.864    -0.001     10.60
   NaOH           5.639e-023  5.639e-023   -22.249   -22.249     0.000     (0)  
O(0)         0.000e+000
   O2             0.000e+000  0.000e+000   -42.068   -42.068     0.000     34.35
S(-2)        3.371e-032
   H2S            2.570e-032  2.570e-032   -31.590   -31.590     0.000     37.32
   HS-            8.006e-033  7.990e-033   -32.097   -32.097    -0.001     18.98
   S-2            1.065e-037  1.057e-037   -36.973   -36.976    -0.003     (0)  
S(6)         2.994e-007
   SO4-2          2.991e-007  2.968e-007    -6.524    -6.528    -0.003      8.65
   HSO4-          2.929e-010  2.923e-010    -9.533    -9.534    -0.001     40.12
   NaSO4-         1.370e-012  1.368e-012   -11.863   -11.864    -0.001     10.60

------------------------------Saturation indices-------------------------------

	Phase               SI   log IAP   log K(385 K,   2 atm)

	H2(g)           -11.16    -14.24   -3.08  H2
	H2O(g)            0.18     -0.00   -0.18  H2O
	H2S(g)          -30.16    -38.12   -7.96  H2S
	O2(g)           -38.96    -42.07   -3.11  O2
	Sulfur          -24.09    -20.79    3.30  S


Reaction step 11.

Using solution 1.	
Using temperature 1.	

-----------------------------Solution composition------------------------------

	Elements           Molality       Moles

	Na               6.000e-007  6.000e-007
	S                2.994e-007  2.994e-007

----------------------------Description of solution----------------------------

                                       pH  =   5.945      Charge balance
                                       pe  =  -0.562      Adjusted to redox equilibrium
       Specific Conductance (uS/cm, 125 oC) = 2
                          Density (g/cm3)  =   0.93903
                               Volume (L)  =   1.06493
                        Activity of water  =   1.000
                           Ionic strength  =  2.036e-006
                       Mass of water (kg)  =  1.000e+000
                 Total alkalinity (eq/kg)  =  1.215e-009
                    Total carbon (mol/kg)  =  0.000e+000
                       Total CO2 (mol/kg)  =  0.000e+000
                      Temperature (deg C)  = 125.00
                           Pressure (atm)  =  2.29
                  Electrical balance (eq)  = -2.556e-018
 Percent error, 100*(Cat-|An|)/(Cat+|An|)  =  -0.00
                               Iterations  =  12
                                  Total H  = 1.110124e+002
                                  Total O  = 5.550622e+001

----------------------------Distribution of species----------------------------

                                               Log       Log       Log    mole V
   Species          Molality    Activity  Molality  Activity     Gamma   cm3/mol

   OH-            1.139e-006  1.136e-006    -5.944    -5.945    -0.001     -8.39
   H+             1.137e-006  1.134e-006    -5.944    -5.945    -0.001      0.00
   H2O            5.551e+001  1.000e+000     1.744    -0.000     0.000     19.19
H(0)         1.150e-014
   H2             5.748e-015  5.748e-015   -14.240   -14.240     0.000     28.56
Na           6.000e-007
   Na+            6.000e-007  5.987e-007    -6.222    -6.223    -0.001      0.71
   NaSO4-         1.433e-012  1.430e-012   -11.844   -11.845    -0.001      8.02
   NaOH           6.795e-023  6.795e-023   -22.168   -22.168     0.000     (0)  
O(0)         3.698e-040
   O2             1.849e-040  1.849e-040   -39.733   -39.733     0.000     34.83
S(-2)        5.653e-033
   H2S            4.558e-033  4.558e-033   -32.341   -32.341     0.000     37.32
   HS-            1.096e-033  1.093e-033   -32.960   -32.961    -0.001     18.00
   S-2            1.990e-038  1.973e-038   -37.701   -37.705    -0.004     (0)  
S(6)         2.994e-007
   SO4-2          2.989e-007  2.964e-007    -6.525    -6.528    -0.004      5.71
   HSO4-          5.197e-010  5.186e-010    -9.284    -9.285    -0.001     39.38
   NaSO4-         1.433e-012  1.430e-012   -11.844   -11.845    -0.001      8.02

------------------------------Saturation indices-------------------------------

	Phase               SI   log IAP   log K(398 K,   2 atm)

	H2(g)           -11.19    -14.24   -3.05  H2
	H2O(g)            0.35     -0.00   -0.35  H2O
	H2S(g)          -30.92    -38.91   -7.99  H2S
	O2(g)           -36.64    -39.73   -3.09  O2
	Sulfur          -24.71    -21.58    3.13  S


Reaction step 12.

Using solution 1.	
Using temperature 1.	

-----------------------------Solution composition------------------------------

	Elements           Molality       Moles

	Na               6.000e-007  6.000e-007
	S                2.994e-007  2.994e-007

----------------------------Description of solution----------------------------

                                       pH  =   5.874      Charge balance
                                       pe  =  -0.506      Adjusted to redox equilibrium
       Specific Conductance (uS/cm, 137 oC) = 3
                          Density (g/cm3)  =   0.92835
                               Volume (L)  =   1.07718
                        Activity of water  =   1.000
                           Ionic strength  =  2.237e-006
                       Mass of water (kg)  =  1.000e+000
                 Total alkalinity (eq/kg)  =  1.215e-009
                    Total carbon (mol/kg)  =  0.000e+000
                       Total CO2 (mol/kg)  =  0.000e+000
                      Temperature (deg C)  = 137.50
                           Pressure (atm)  =  3.32
                  Electrical balance (eq)  =  9.275e-015
 Percent error, 100*(Cat-|An|)/(Cat+|An|)  =   0.00
                               Iterations  =  11
                                  Total H  = 1.110124e+002
                                  Total O  = 5.550622e+001

----------------------------Distribution of species----------------------------

                                               Log       Log       Log    mole V
   Species          Molality    Activity  Molality  Activity     Gamma   cm3/mol

   OH-            1.341e-006  1.337e-006    -5.873    -5.874    -0.001    -10.06
   H+             1.338e-006  1.335e-006    -5.873    -5.874    -0.001      0.00
   H2O            5.551e+001  1.000e+000     1.744    -0.000     0.000     19.41
H(0)         1.150e-014
   H2             5.748e-015  5.748e-015   -14.240   -14.240     0.000     28.56
Na           6.000e-007
   Na+            6.000e-007  5.986e-007    -6.222    -6.223    -0.001      0.82
   NaSO4-         1.493e-012  1.489e-012   -11.826   -11.827    -0.001      4.89
   NaOH           7.990e-023  7.990e-023   -22.097   -22.097     0.000     (0)  
O(0)         5.761e-038
   O2             2.881e-038  2.881e-038   -37.541   -37.541     0.000     35.34
S(-2)        1.078e-033
   H2S            9.114e-034  9.114e-034   -33.040   -33.040     0.000     37.33
   HS-            1.670e-034  1.666e-034   -33.777   -33.778    -0.001     16.76
   S-2            4.117e-039  4.080e-039   -38.385   -38.389    -0.004     (0)  
S(6)         2.994e-007
   SO4-2          2.985e-007  2.958e-007    -6.525    -6.529    -0.004      2.06
   HSO4-          9.051e-010  9.030e-010    -9.043    -9.044    -0.001     38.43
   NaSO4-         1.493e-012  1.489e-012   -11.826   -11.827    -0.001      4.89

------------------------------Saturation indices-------------------------------

	Phase               SI   log IAP   log K(410 K,   3 atm)

	H2(g)           -11.23    -14.24   -3.02  H2
	H2O(g)            0.51     -0.00   -0.51  H2O
	H2S(g)          -31.64    -39.65   -8.02  H2S
	O2(g)           -34.47    -37.54   -3.07  O2
	Sulfur          -25.28    -22.30    2.98  S


Reaction step 13.

Using solution 1.	
Using temperature 1.	

-----------------------------Solution composition------------------------------

	Elements           Molality       Moles

	Na               6.000e-007  6.000e-007
	S                2.994e-007  2.994e-007

----------------------------Description of solution----------------------------

                                       pH  =   5.813      Charge balance
                                       pe  =  -0.470      Adjusted to redox equilibrium
       Specific Conductance (uS/cm, 150 oC) = 4
                          Density (g/cm3)  =   0.91701
                               Volume (L)  =   1.09050
                        Activity of water  =   1.000
                           Ionic strength  =  2.438e-006
                       Mass of water (kg)  =  1.000e+000
                 Total alkalinity (eq/kg)  =  1.215e-009
                    Total carbon (mol/kg)  =  0.000e+000
                       Total CO2 (mol/kg)  =  0.000e+000
                      Temperature (deg C)  = 150.00
                           Pressure (atm)  =  4.70
                  Electrical balance (eq)  = -2.722e-018
 Percent error, 100*(Cat-|An|)/(Cat+|An|)  =  -0.00
                               Iterations  =  12
                                  Total H  = 1.110124e+002
                                  Total O  = 5.550622e+001

----------------------------Distribution of species----------------------------

                                               Log       Log       Log    mole V
   Species          Molality    Activity  Molality  Activity     Gamma   cm3/mol

   OH-            1.543e-006  1.539e-006    -5.812    -5.813    -0.001    -12.11
   H+             1.540e-006  1.537e-006    -5.812    -5.813    -0.001      0.00
   H2O            5.551e+001  1.000e+000     1.744    -0.000     0.000     19.65
H(0)         1.210e-014
   H2             6.048e-015  6.048e-015   -14.218   -14.218     0.000     28.56
Na           6.000e-007
   Na+            6.000e-007  5.985e-007    -6.222    -6.223    -0.001      0.91
   NaSO4-         1.550e-012  1.546e-012   -11.810   -11.811    -0.001      1.09
   NaOH           9.182e-023  9.182e-023   -22.037   -22.037     0.000     (0)  
O(0)         6.014e-036
   O2             3.007e-036  3.007e-036   -35.522   -35.522     0.000     35.91
S(-2)        2.832e-034
   H2S            2.488e-034  2.488e-034   -33.604   -33.604     0.000     37.33
   HS-            3.436e-035  3.428e-035   -34.464   -34.465    -0.001     15.23
   S-2            1.146e-039  1.135e-039   -38.941   -38.945    -0.004     (0)  
S(6)         2.994e-007
   SO4-2          2.978e-007  2.949e-007    -6.526    -6.530    -0.004     -2.44
   HSO4-          1.547e-009  1.543e-009    -8.810    -8.812    -0.001     37.23
   NaSO4-         1.550e-012  1.546e-012   -11.810   -11.811    -0.001      1.09

------------------------------Saturation indices-------------------------------

	Phase               SI   log IAP   log K(423 K,   5 atm)

	H2(g)           -11.24    -14.22   -2.98  H2
	H2O(g)            0.66     -0.00   -0.66  H2O
	H2S(g)          -32.22    -40.28   -8.05  H2S
	O2(g)           -32.48    -35.52   -3.04  O2
	Sulfur          -25.75    -22.92    2.83  S


Reaction step 14.

Using solution 1.	
Using temperature 1.	

-----------------------------Solution composition------------------------------

	Elements           Molality       Moles

	Na               6.000e-007  6.000e-007
	S                2.994e-007  2.994e-007

----------------------------Description of solution----------------------------

                                       pH  =   5.762      Charge balance
                                       pe  =   4.625      Adjusted to redox equilibrium
       Specific Conductance (uS/cm, 162 oC) = 5
                          Density (g/cm3)  =   0.90499
                               Volume (L)  =   1.10498
                        Activity of water  =   1.000
                           Ionic strength  =  2.632e-006
                       Mass of water (kg)  =  1.000e+000
                 Total alkalinity (eq/kg)  =  1.215e-009
                    Total carbon (mol/kg)  =  0.000e+000
                       Total CO2 (mol/kg)  =  0.000e+000
                      Temperature (deg C)  = 162.50
                           Pressure (atm)  =  6.50
                  Electrical balance (eq)  = -2.726e-018
 Percent error, 100*(Cat-|An|)/(Cat+|An|)  =  -0.00
                               Iterations  =   7
                                  Total H  = 1.110124e+002
                                  Total O  = 5.550622e+001

----------------------------Distribution of species----------------------------

                                               Log       Log       Log    mole V
   Species          Molality    Activity  Molality  Activity     Gamma   cm3/mol

   OH-            1.739e-006  1.735e-006    -5.760    -5.761    -0.001    -14.62
   H+             1.736e-006  1.731e-006    -5.761    -5.762    -0.001      0.00
   H2O            5.551e+001  1.000e+000     1.744    -0.000     0.000     19.91
H(0)         9.313e-025
   H2             4.657e-025  4.657e-025   -24.332   -24.332     0.000     28.56
Na           6.000e-007
   Na+            6.000e-007  5.984e-007    -6.222    -6.223    -0.001      0.99
   NaSO4-         1.603e-012  1.598e-012   -11.795   -11.796    -0.001     -3.54
   NaOH           1.033e-022  1.033e-022   -21.986   -21.986     0.000     (0)  
O(0)         8.920e-014
   O2             4.460e-014  4.460e-014   -13.351   -13.351     0.000     36.56
S(-2)        0.000e+000
   H2S            0.000e+000  0.000e+000   -74.668   -74.668     0.000     37.34
   HS-            0.000e+000  0.000e+000   -75.655   -75.656    -0.001     13.35
   S-2            0.000e+000  0.000e+000   -80.002   -80.006    -0.005     (0)  
S(6)         2.994e-007
   SO4-2          2.968e-007  2.936e-007    -6.528    -6.532    -0.005     -7.98
   HSO4-          2.596e-009  2.589e-009    -8.586    -8.587    -0.001     35.74
   NaSO4-         1.603e-012  1.598e-012   -11.795   -11.796    -0.001     -3.54

------------------------------Saturation indices-------------------------------

	Phase               SI   log IAP   log K(435 K,   7 atm)

	H2(g)           -21.39    -24.33   -2.94  H2
	H2O(g)            0.80     -0.00   -0.80  H2O
	H2S(g)          -73.32    -81.42   -8.10  H2S
	O2(g)           -10.34    -13.35   -3.01  O2
	Sulfur          -56.59    -53.90    2.69  S


Reaction step 15.

Using solution 1.	
Using temperature 1.	

-----------------------------Solution composition------------------------------

	Elements           Molality       Moles

	Na               6.000e-007  6.000e-007
	S                2.994e-007  2.994e-007

----------------------------Description of solution----------------------------

                                       pH  =   5.719      Charge balance
                                       pe  =   4.672      Adjusted to redox equilibrium
       Specific Conductance (uS/cm, 175 oC) = 6
                          Density (g/cm3)  =   0.89228
                               Volume (L)  =   1.12072
                        Activity of water  =   1.000
                           Ionic strength  =  2.812e-006
                       Mass of water (kg)  =  1.000e+000
                 Total alkalinity (eq/kg)  =  1.215e-009
                    Total carbon (mol/kg)  =  0.000e+000
                       Total CO2 (mol/kg)  =  0.000e+000
                      Temperature (deg C)  = 175.00
                           Pressure (atm)  =  8.82
                  Electrical balance (eq)  = -2.748e-018
 Percent error, 100*(Cat-|An|)/(Cat+|An|)  =  -0.00
                               Iterations  =   7
                                  Total H  = 1.110124e+002
                                  Total O  = 5.550622e+001

----------------------------Distribution of species----------------------------

                                               Log       Log       Log    mole V
   Species          Molality    Activity  Molality  Activity     Gamma   cm3/mol

   OH-            1.922e-006  1.917e-006    -5.716    -5.717    -0.001    -17.72
   H+             1.917e-006  1.911e-006    -5.717    -5.719    -0.001      0.00
   H2O            5.551e+001  1.000e+000     1.744    -0.000     0.000     20.19
H(0)         8.629e-025
   H2             4.314e-025  4.314e-025   -24.365   -24.365     0.000     28.55
Na           6.000e-007
   Na+            6.000e-007  5.983e-007    -6.222    -6.223    -0.001      1.07
   NaSO4-         1.650e-012  1.645e-012   -11.782   -11.784    -0.001     -9.19
   NaOH           1.137e-022  1.137e-022   -21.944   -21.944     0.000     (0)  
O(0)         7.113e-012
   O2             3.556e-012  3.556e-012   -11.449   -11.449     0.000     37.31
S(-2)        0.000e+000
   H2S            0.000e+000  0.000e+000   -75.373   -75.373     0.000     37.34
   HS-            0.000e+000  0.000e+000   -76.490   -76.492    -0.001     11.03
   S-2            0.000e+000  0.000e+000   -80.708   -80.713    -0.005     (0)  
S(6)         2.994e-007
   SO4-2          2.951e-007  2.918e-007    -6.530    -6.535    -0.005    -14.81
   HSO4-          4.270e-009  4.258e-009    -8.370    -8.371    -0.001     33.88
   NaSO4-         1.650e-012  1.645e-012   -11.782   -11.784    -0.001     -9.19

------------------------------Saturation indices-------------------------------

	Phase               SI   log IAP   log K(448 K,   9 atm)

	H2(g)           -21.47    -24.37   -2.90  H2
	H2O(g)            0.93     -0.00   -0.93  H2O
	H2S(g)          -74.06    -82.21   -8.15  H2S
	O2(g)            -8.48    -11.45   -2.97  O2
	Sulfur          -57.15    -54.59    2.56  S


Reaction step 16.

Using solution 1.	
Using temperature 1.	

-----------------------------Solution composition------------------------------

	Elements           Molality       Moles

	Na               6.000e-007  6.000e-007
	S                2.994e-007  2.994e-007

----------------------------Description of solution----------------------------

                                       pH  =   5.684      Charge balance
                                       pe  =   4.707      Adjusted to redox equilibrium
       Specific Conductance (uS/cm, 187 oC) = 7
                          Density (g/cm3)  =   0.87886
                               Volume (L)  =   1.13784
                        Activity of water  =   1.000
                           Ionic strength  =  2.970e-006
                       Mass of water (kg)  =  1.000e+000
                 Total alkalinity (eq/kg)  =  1.215e-009
                    Total carbon (mol/kg)  =  0.000e+000
                       Total CO2 (mol/kg)  =  0.000e+000
                      Temperature (deg C)  = 187.50
                           Pressure (atm)  = 11.74
                  Electrical balance (eq)  = -2.622e-018
 Percent error, 100*(Cat-|An|)/(Cat+|An|)  =  -0.00
                               Iterations  =   7
                                  Total H  = 1.110124e+002
                                  Total O  = 5.550622e+001

----------------------------Distribution of species----------------------------

                                               Log       Log       Log    mole V
   Species          Molality    Activity  Molality  Activity     Gamma   cm3/mol

   OH-            2.085e-006  2.079e-006    -5.681    -5.682    -0.001    -21.55
   H+             2.077e-006  2.071e-006    -5.683    -5.684    -0.001      0.00
   H2O            5.551e+001  1.000e+000     1.744    -0.000     0.000     20.50
H(0)         8.160e-025
   H2             4.080e-025  4.080e-025   -24.389   -24.389     0.000     28.55
Na           6.000e-007
   Na+            6.000e-007  5.982e-007    -6.222    -6.223    -0.001      1.14
   NaSO4-         1.690e-012  1.685e-012   -11.772   -11.774    -0.001    -16.14
   NaOH           1.229e-022  1.229e-022   -21.911   -21.911     0.000     (0)  
O(0)         4.324e-010
   O2             2.162e-010  2.162e-010    -9.665    -9.665     0.000     38.19
S(-2)        0.000e+000
   H2S            0.000e+000  0.000e+000   -76.010   -76.010     0.000     37.34
   HS-            0.000e+000  0.000e+000   -77.260   -77.261    -0.001      8.15
   S-2            0.000e+000  0.000e+000   -81.348   -81.353    -0.005     (0)  
S(6)         2.994e-007
   SO4-2          2.925e-007  2.889e-007    -6.534    -6.539    -0.005    -23.26
   HSO4-          6.881e-009  6.859e-009    -8.162    -8.164    -0.001     31.56
   NaSO4-         1.690e-012  1.685e-012   -11.772   -11.774    -0.001    -16.14

------------------------------Saturation indices-------------------------------

	Phase               SI   log IAP   log K(460 K,  12 atm)

	H2(g)           -21.54    -24.39   -2.85  H2
	H2O(g)            1.04     -0.00   -1.04  H2O
	H2S(g)          -74.74    -82.95   -8.20  H2S
	O2(g)            -6.74     -9.67   -2.92  O2
	Sulfur          -57.67    -55.23    2.44  S


Reaction step 17.

Using solution 1.	
Using temperature 1.	

-----------------------------Solution composition------------------------------

	Elements           Molality       Moles

	Na               6.000e-007  6.000e-007
	S                2.994e-007  2.994e-007

----------------------------Description of solution----------------------------

                                       pH  =   5.657      Charge balance
                                       pe  =   4.516      Adjusted to redox equilibrium
       Specific Conductance (uS/cm, 200 oC) = 8
                          Density (g/cm3)  =   0.86467
                               Volume (L)  =   1.15651
                        Activity of water  =   1.000
                           Ionic strength  =  3.099e-006
                       Mass of water (kg)  =  1.000e+000
                 Total alkalinity (eq/kg)  =  1.215e-009
                    Total carbon (mol/kg)  =  0.000e+000
                       Total CO2 (mol/kg)  =  0.000e+000
                      Temperature (deg C)  = 200.00
                           Pressure (atm)  = 15.38
                  Electrical balance (eq)  = -2.725e-018
 Percent error, 100*(Cat-|An|)/(Cat+|An|)  =  -0.00
                               Iterations  =   9
                                  Total H  = 1.110124e+002
                                  Total O  = 5.550622e+001

----------------------------Distribution of species----------------------------

                                               Log       Log       Log    mole V
   Species          Molality    Activity  Molality  Activity     Gamma   cm3/mol

   OH-            2.223e-006  2.215e-006    -5.653    -5.655    -0.001    -26.30
   H+             2.211e-006  2.203e-006    -5.655    -5.657    -0.001      0.00
   H2O            5.551e+001  1.000e+000     1.744    -0.000     0.000     20.84
H(0)         2.103e-024
   H2             1.052e-024  1.052e-024   -23.978   -23.978     0.000     28.55
Na           6.000e-007
   Na+            6.000e-007  5.980e-007    -6.222    -6.223    -0.001      1.20
   NaSO4-         1.718e-012  1.713e-012   -11.765   -11.766    -0.001    -24.76
   NaOH           1.302e-022  1.302e-022   -21.885   -21.885     0.000     (0)  
O(0)         2.863e-009
   O2             1.431e-009  1.431e-009    -8.844    -8.844     0.000     39.26
S(-2)        0.000e+000
   H2S            0.000e+000  0.000e+000   -74.876   -74.876     0.000     37.33
   HS-            0.000e+000  0.000e+000   -76.261   -76.263    -0.001      4.57
   S-2            0.000e+000  0.000e+000   -80.218   -80.224    -0.006     (0)  
S(6)         2.994e-007
   SO4-2          2.886e-007  2.848e-007    -6.540    -6.545    -0.006    -33.77
   HSO4-          1.084e-008  1.080e-008    -7.965    -7.966    -0.001     28.66
   NaSO4-         1.718e-012  1.713e-012   -11.765   -11.766    -0.001    -24.76

------------------------------Saturation indices-------------------------------

	Phase               SI   log IAP   log K(473 K,  15 atm)

	H2(g)           -21.17    -23.98   -2.81  H2
	H2O(g)            1.16     -0.00   -1.16  H2O
	H2S(g)          -73.66    -81.92   -8.26  H2S
	O2(g)            -5.97     -8.84   -2.88  O2
	Sulfur          -56.85    -54.53    2.33  S


Reaction step 18.

Using solution 1.	
Using temperature 1.	

-----------------------------Solution composition------------------------------

	Elements           Molality       Moles

	Na               6.000e-007  6.000e-007
	S                2.994e-007  2.994e-007

----------------------------Description of solution----------------------------

                                       pH  =   5.637      Charge balance
                                       pe  =   4.102      Adjusted to redox equilibrium
       Specific Conductance (uS/cm, 212 oC) = 9
                          Density (g/cm3)  =   0.84967
                               Volume (L)  =   1.17693
                        Activity of water  =   1.000
                           Ionic strength  =  3.196e-006
                       Mass of water (kg)  =  1.000e+000
                 Total alkalinity (eq/kg)  =  1.215e-009
                    Total carbon (mol/kg)  =  0.000e+000
                       Total CO2 (mol/kg)  =  0.000e+000
                      Temperature (deg C)  = 212.50
                           Pressure (atm)  = 19.83
                  Electrical balance (eq)  = -2.722e-018
 Percent error, 100*(Cat-|An|)/(Cat+|An|)  =  -0.00
                               Iterations  =  13
                                  Total H  = 1.110124e+002
                                  Total O  = 5.550622e+001

----------------------------Distribution of species----------------------------

                                               Log       Log       Log    mole V
   Species          Molality    Activity  Molality  Activity     Gamma   cm3/mol

   OH-            2.331e-006  2.323e-006    -5.633    -5.634    -0.002    -32.27
   H+             2.313e-006  2.305e-006    -5.636    -5.637    -0.002      0.00
   H2O            5.551e+001  1.000e+000     1.744    -0.000     0.000     21.20
H(0)         1.477e-023
   H2             7.383e-024  7.383e-024   -23.132   -23.132     0.000     28.54
Na           6.000e-007
   Na+            6.000e-007  5.979e-007    -6.222    -6.223    -0.002      1.27
   NaSO4-         1.731e-012  1.725e-012   -11.762   -11.763    -0.002    -35.53
   NaOH           1.354e-022  1.354e-022   -21.868   -21.868     0.000     (0)  
O(0)         2.099e-009
   O2             1.049e-009  1.049e-009    -8.979    -8.979     0.000     40.56
S(-2)        0.000e+000
   H2S            0.000e+000  0.000e+000   -71.976   -71.976     0.000     37.33
   HS-            0.000e+000  0.000e+000   -73.499   -73.501    -0.002      0.07
   S-2            0.000e+000  0.000e+000   -77.324   -77.330    -0.006     (0)  
S(6)         2.994e-007
   SO4-2          2.827e-007  2.788e-007    -6.549    -6.555    -0.006    -46.97
   HSO4-          1.664e-008  1.659e-008    -7.779    -7.780    -0.002     25.01
   NaSO4-         1.731e-012  1.725e-012   -11.762   -11.763    -0.002    -35.53

------------------------------Saturation indices-------------------------------

	Phase               SI   log IAP   log K(485 K,  20 atm)

	H2(g)           -20.37    -23.13   -2.76  H2
	H2O(g)            1.26     -0.00   -1.26  H2O
	H2S(g)          -70.82    -79.14   -8.32  H2S
	O2(g)            -6.16     -8.98   -2.82  O2
	Sulfur          -54.72    -52.50    2.22  S


Reaction step 19.

Using solution 1.	
Using temperature 1.	

-----------------------------Solution composition------------------------------

	Elements           Molality       Moles

	Na               6.000e-007  6.000e-007
	S                2.994e-007  2.994e-007

----------------------------Description of solution----------------------------

                                       pH  =   5.625      Charge balance
                                       pe  =   3.788      Adjusted to redox equilibrium
       Specific Conductance (uS/cm, 225 oC) = 10
                          Density (g/cm3)  =   0.83379
                               Volume (L)  =   1.19935
                        Activity of water  =   1.000
                           Ionic strength  =  3.255e-006
                       Mass of water (kg)  =  1.000e+000
                 Total alkalinity (eq/kg)  =  1.215e-009
                    Total carbon (mol/kg)  =  0.000e+000
                       Total CO2 (mol/kg)  =  0.000e+000
                      Temperature (deg C)  = 225.00
                           Pressure (atm)  = 25.21
                  Electrical balance (eq)  = -2.729e-018
 Percent error, 100*(Cat-|An|)/(Cat+|An|)  =  -0.00
                               Iterations  =  16
                                  Total H  = 1.110124e+002
                                  Total O  = 5.550622e+001

----------------------------Distribution of species----------------------------

                                               Log       Log       Log    mole V
   Species          Molality    Activity  Molality  Activity     Gamma   cm3/mol

   OH-            2.407e-006  2.398e-006    -5.619    -5.620    -0.002    -39.83
   H+             2.381e-006  2.372e-006    -5.623    -5.625    -0.002      0.00
   H2O            5.551e+001  1.000e+000     1.744    -0.000     0.000     21.61
H(0)         6.301e-023
   H2             3.150e-023  3.150e-023   -22.502   -22.502     0.000     28.54
Na           6.000e-007
   Na+            6.000e-007  5.978e-007    -6.222    -6.223    -0.002      1.33
   NaSO4-         1.724e-012  1.718e-012   -11.763   -11.765    -0.002    -49.17
   NaOH           1.382e-022  1.382e-022   -21.859   -21.859     0.000     (0)  
O(0)         3.475e-009
   O2             1.738e-009  1.738e-009    -8.760    -8.760     0.000     42.18
S(-2)        0.000e+000
   H2S            0.000e+000  0.000e+000   -69.922   -69.922     0.000     37.32
   HS-            0.000e+000  0.000e+000   -71.583   -71.585    -0.002     -5.64
   S-2            0.000e+000  0.000e+000   -75.273   -75.280    -0.006     (0)  
S(6)         2.994e-007
   SO4-2          2.746e-007  2.705e-007    -6.561    -6.568    -0.006    -63.72
   HSO4-          2.483e-008  2.474e-008    -7.605    -7.607    -0.002     20.36
   NaSO4-         1.724e-012  1.718e-012   -11.763   -11.765    -0.002    -49.17

------------------------------Saturation indices-------------------------------

	Phase               SI   log IAP   log K(498 K,  25 atm)

	H2(g)           -19.79    -22.50   -2.71  H2
	H2O(g)            1.36     -0.00   -1.36  H2O
	H2S(g)          -68.82    -77.21   -8.39  H2S
	O2(g)            -5.99     -8.76   -2.77  O2
	Sulfur          -53.22    -51.10    2.12  S


Reaction step 20.

Using solution 1.	
Using temperature 1.	

-----------------------------Solution composition------------------------------

	Elements           Molality       Moles

	Na               6.000e-007  6.000e-007
	S                2.994e-007  2.994e-007

----------------------------Description of solution----------------------------

                                       pH  =   5.619      Charge balance
                                       pe  =   3.469      Adjusted to redox equilibrium
       Specific Conductance (uS/cm, 237 oC) = 11
                          Density (g/cm3)  =   0.81693
                               Volume (L)  =   1.22409
                        Activity of water  =   1.000
                           Ionic strength  =  3.278e-006
                       Mass of water (kg)  =  1.000e+000
                 Total alkalinity (eq/kg)  =  1.215e-009
                    Total carbon (mol/kg)  =  0.000e+000
                       Total CO2 (mol/kg)  =  0.000e+000
                      Temperature (deg C)  = 237.50
                           Pressure (atm)  = 31.64
                  Electrical balance (eq)  = -2.729e-018
 Percent error, 100*(Cat-|An|)/(Cat+|An|)  =  -0.00
                               Iterations  =  19
                                  Total H  = 1.110124e+002
                                  Total O  = 5.550622e+001

----------------------------Distribution of species----------------------------

                                               Log       Log       Log    mole V
   Species          Molality    Activity  Molality  Activity     Gamma   cm3/mol

   OH-            2.451e-006  2.442e-006    -5.611    -5.612    -0.002    -49.54
   H+             2.414e-006  2.405e-006    -5.617    -5.619    -0.002      0.00
   H2O            5.551e+001  1.000e+000     1.744    -0.000     0.000     22.05
H(0)         2.693e-022
   H2             1.346e-022  1.346e-022   -21.871   -21.871     0.000     28.54
Na           6.000e-007
   Na+            6.000e-007  5.977e-007    -6.222    -6.224    -0.002      1.39
   NaSO4-         1.692e-012  1.686e-012   -11.772   -11.773    -0.002    -66.67
   NaOH           1.385e-022  1.385e-022   -21.859   -21.859     0.000     (0)  
O(0)         4.845e-009
   O2             2.422e-009  2.422e-009    -8.616    -8.616     0.000     44.24
S(-2)        0.000e+000
   H2S            0.000e+000  0.000e+000   -67.850   -67.850     0.000     37.31
   HS-            0.000e+000  0.000e+000   -69.649   -69.651    -0.002    -12.98
   S-2            0.000e+000  0.000e+000   -73.201   -73.208    -0.007     (0)  
S(6)         2.994e-007
   SO4-2          2.635e-007  2.595e-007    -6.579    -6.586    -0.007    -85.24
   HSO4-          3.584e-008  3.570e-008    -7.446    -7.447    -0.002     14.38
   NaSO4-         1.692e-012  1.686e-012   -11.772   -11.773    -0.002    -66.67

------------------------------Saturation indices-------------------------------

	Phase               SI   log IAP   log K(510 K,  32 atm)

	H2(g)           -19.21    -21.87   -2.66  H2
	H2O(g)            1.45     -0.00   -1.45  H2O
	H2S(g)          -66.82    -75.27   -8.45  H2S
	O2(g)            -5.90     -8.62   -2.71  O2
	Sulfur          -51.71    -49.68    2.04  S


Reaction step 21.

Using solution 1.	
Using temperature 1.	

-----------------------------Solution composition------------------------------

	Elements           Molality       Moles

	Na               6.000e-007  6.000e-007
	S                2.994e-007  2.994e-007

----------------------------Description of solution----------------------------

                                       pH  =   5.619      Charge balance
                                       pe  =   3.034      Adjusted to redox equilibrium
       Specific Conductance (uS/cm, 250 oC) = 12
                          Density (g/cm3)  =   0.79899
                               Volume (L)  =   1.25159
                        Activity of water  =   1.000
                           Ionic strength  =  3.264e-006
                       Mass of water (kg)  =  1.000e+000
                 Total alkalinity (eq/kg)  =  1.215e-009
                    Total carbon (mol/kg)  =  0.000e+000
                       Total CO2 (mol/kg)  =  0.000e+000
                      Temperature (deg C)  = 250.00
                           Pressure (atm)  = 39.24
                  Electrical balance (eq)  = -2.724e-018
 Percent error, 100*(Cat-|An|)/(Cat+|An|)  =  -0.00
                               Iterations  =  23
                                  Total H  = 1.110124e+002
                                  Total O  = 5.550622e+001

----------------------------Distribution of species----------------------------

                                               Log       Log       Log    mole V
   Species          Molality    Activity  Molality  Activity     Gamma   cm3/mol

   OH-            2.465e-006  2.455e-006    -5.608    -5.610    -0.002    -62.21
   H+             2.414e-006  2.404e-006    -5.617    -5.619    -0.002      0.00
   H2O            5.551e+001  1.000e+000     1.744    -0.000     0.000     22.55
H(0)         1.900e-021
   H2             9.502e-022  9.502e-022   -21.022   -21.022     0.000     28.53
Na           6.000e-007
   Na+            6.000e-007  5.976e-007    -6.222    -6.224    -0.002      1.44
   NaSO4-         1.632e-012  1.625e-012   -11.787   -11.789    -0.002    -89.47
   NaOH           1.360e-022  1.360e-022   -21.866   -21.866     0.000     (0)  
O(0)         2.117e-009
   O2             1.059e-009  1.059e-009    -8.975    -8.975     0.000     46.90
S(-2)        0.000e+000
   H2S            0.000e+000  0.000e+000   -64.896   -64.896     0.000     37.30
   HS-            0.000e+000  0.000e+000   -66.833   -66.834    -0.002    -22.56
   S-2            0.000e+000  0.000e+000   -70.242   -70.249    -0.007     (0)  
S(6)         2.994e-007
   SO4-2          2.496e-007  2.455e-007    -6.603    -6.610    -0.007   -113.34
   HSO4-          4.982e-008  4.962e-008    -7.303    -7.304    -0.002      6.57
   NaSO4-         1.632e-012  1.625e-012   -11.787   -11.789    -0.002    -89.47

------------------------------Saturation indices-------------------------------

	Phase               SI   log IAP   log K(523 K,  39 atm)

	H2(g)           -18.41    -21.02   -2.61  H2
	H2O(g)            1.53     -0.00   -1.53  H2O
	H2S(g)          -63.94    -72.45   -8.51  H2S
	O2(g)            -6.32     -8.98   -2.65  O2
	Sulfur          -49.56    -47.59    1.97  S


------------------
End of simulation.
------------------

------------------------------------
Reading input data for simulation 2.
------------------------------------

	USE solution 1
	REACTION_PRESSURE
	 300
	USE reaction_temperature 1
	USER_GRAPH 3
	-headings -Vm.(300.bar)
	 20 mV = Vm("SO4-2") + 2*Vm("Na+")
	 30 plot_xy tk, mV, color = Green, symbol = None, line_width = 2
	END
-----------------------------------------
Beginning of batch-reaction calculations.
-----------------------------------------

Reaction step 1.

Using solution 1.	
Using temperature 1.	
Using pressure 1.	

-----------------------------Solution composition------------------------------

	Elements           Molality       Moles

	Na               6.000e-007  6.000e-007
	S                2.994e-007  2.994e-007

----------------------------Description of solution----------------------------

                                       pH  =   7.418      Charge balance
                                       pe  =  -1.897      Adjusted to redox equilibrium
       Specific Conductance (uS/cm, 0 oC) = 0
                          Density (g/cm3)  =   1.01478
                               Volume (L)  =   0.98543
                        Activity of water  =   1.000
                           Ionic strength  =  9.376e-007
                       Mass of water (kg)  =  1.000e+000
                 Total alkalinity (eq/kg)  =  1.215e-009
                    Total carbon (mol/kg)  =  0.000e+000
                       Total CO2 (mol/kg)  =  0.000e+000
                      Temperature (deg C)  =   0.00
                           Pressure (atm)  = 300.00
                  Electrical balance (eq)  = -9.532e-019
 Percent error, 100*(Cat-|An|)/(Cat+|An|)  =  -0.00
                               Iterations  =  10
                                  Total H  = 1.110124e+002
                                  Total O  = 5.550622e+001

----------------------------Distribution of species----------------------------

                                               Log       Log       Log    mole V
   Species          Molality    Activity  Molality  Activity     Gamma   cm3/mol

   OH-            3.943e-008  3.939e-008    -7.404    -7.405    -0.000     -2.20
   H+             3.822e-008  3.817e-008    -7.418    -7.418    -0.000      0.00
   H2O            5.551e+001  1.000e+000     1.744    -0.000     0.000     17.75
H(0)         1.151e-014
   H2             5.754e-015  5.754e-015   -14.240   -14.240     0.000     28.51
Na           6.000e-007
   Na+            6.000e-007  5.994e-007    -6.222    -6.222    -0.000     -2.03
   NaSO4-         6.510e-013  6.503e-013   -12.186   -12.187    -0.000     15.21
   NaOH           1.809e-024  1.809e-024   -23.743   -23.743     0.000     (0)  
O(0)         0.000e+000
   O2             0.000e+000  0.000e+000   -72.990   -72.990     0.000     27.50
S(-2)        2.041e-021
   HS-            1.217e-021  1.216e-021   -20.915   -20.915    -0.000     18.86
   H2S            8.242e-022  8.242e-022   -21.084   -21.084     0.000     36.52
   S-2            1.819e-027  1.811e-027   -26.740   -26.742    -0.002     (0)  
S(6)         2.994e-007
   SO4-2          2.994e-007  2.981e-007    -6.524    -6.526    -0.002      6.23
   NaSO4-         6.510e-013  6.503e-013   -12.186   -12.187    -0.000     15.21
   HSO4-          4.528e-013  4.523e-013   -12.344   -12.345    -0.000     37.09

------------------------------Saturation indices-------------------------------

	Phase               SI   log IAP   log K(273 K, 300 atm)

	H2(g)           -11.23    -14.24   -3.01  H2
	H2O(g)           -2.11     -0.00    2.11  H2O
	H2S(g)          -20.64    -28.33   -7.69  H2S
	O2(g)           -70.13    -72.99   -2.86  O2
	Sulfur          -15.94    -10.04    5.89  S


Reaction step 2.

Using solution 1.	
Using temperature 1.	
Using pressure 1.	

-----------------------------Solution composition------------------------------

	Elements           Molality       Moles

	Na               6.000e-007  6.000e-007
	S                2.994e-007  2.994e-007

----------------------------Description of solution----------------------------

                                       pH  =   7.165      Charge balance
                                       pe  =  -1.672      Adjusted to redox equilibrium
       Specific Conductance (uS/cm, 12 oC) = 0
                          Density (g/cm3)  =   1.01334
                               Volume (L)  =   0.98684
                        Activity of water  =   1.000
                           Ionic strength  =  9.678e-007
                       Mass of water (kg)  =  1.000e+000
                 Total alkalinity (eq/kg)  =  1.215e-009
                    Total carbon (mol/kg)  =  0.000e+000
                       Total CO2 (mol/kg)  =  0.000e+000
                      Temperature (deg C)  =  12.50
                           Pressure (atm)  = 300.00
                  Electrical balance (eq)  = -2.523e-018
 Percent error, 100*(Cat-|An|)/(Cat+|An|)  =  -0.00
                               Iterations  =  10
                                  Total H  = 1.110124e+002
                                  Total O  = 5.550622e+001

----------------------------Distribution of species----------------------------

                                               Log       Log       Log    mole V
   Species          Molality    Activity  Molality  Activity     Gamma   cm3/mol

   OH-            6.964e-008  6.956e-008    -7.157    -7.158    -0.000     -2.66
   H+             6.842e-008  6.835e-008    -7.165    -7.165    -0.000      0.00
   H2O            5.551e+001  1.000e+000     1.744    -0.000     0.000     17.78
H(0)         1.155e-014
   H2             5.773e-015  5.773e-015   -14.239   -14.239     0.000     28.49
Na           6.000e-007
   Na+            6.000e-007  5.993e-007    -6.222    -6.222    -0.000     -1.03
   NaSO4-         7.593e-013  7.585e-013   -12.120   -12.120    -0.000     16.00
[...]

----------------------------Description of solution----------------------------

                                       pH  =   5.684      Charge balance
                                       pe  =   4.707      Adjusted to redox equilibrium
       Specific Conductance (uS/cm, 187 oC) = 7
                          Density (g/cm3)  =   0.87886
                               Volume (L)  =   1.13784
                        Activity of water  =   1.000
                           Ionic strength  =  2.970e-006
                       Mass of water (kg)  =  1.000e+000
                 Total alkalinity (eq/kg)  =  1.215e-009
                    Total carbon (mol/kg)  =  0.000e+000
                       Total CO2 (mol/kg)  =  0.000e+000
                      Temperature (deg C)  = 187.50
                           Pressure (atm)  = 11.74
                  Electrical balance (eq)  = -2.611e-018
 Percent error, 100*(Cat-|An|)/(Cat+|An|)  =  -0.00
                               Iterations  =   7
                                  Total H  = 1.110124e+002
                                  Total O  = 5.550622e+001

----------------------------Distribution of species----------------------------

                                               Log       Log       Log    mole V
   Species          Molality    Activity  Molality  Activity     Gamma   cm3/mol

   OH-            2.085e-006  2.079e-006    -5.681    -5.682    -0.001    -21.55
   H+             2.077e-006  2.071e-006    -5.683    -5.684    -0.001      0.00
   H2O            5.551e+001  1.000e+000     1.744    -0.000     0.000     20.50
H(0)         8.160e-025
   H2             4.080e-025  4.080e-025   -24.389   -24.389     0.000     28.55
Na           6.000e-007
   Na+            6.000e-007  5.982e-007    -6.222    -6.223    -0.001     -9.97
   NaSO4-         1.662e-012  1.657e-012   -11.779   -11.781    -0.001    -16.14
   NaOH           1.232e-022  1.232e-022   -21.909   -21.909     0.000     (0)  
O(0)         4.324e-010
   O2             2.162e-010  2.162e-010    -9.665    -9.665     0.000     38.19
S(-2)        0.000e+000
   H2S            0.000e+000  0.000e+000   -76.015   -76.015     0.000     37.34
   HS-            0.000e+000  0.000e+000   -77.266   -77.267    -0.001      8.15
   S-2            0.000e+000  0.000e+000   -81.366   -81.372    -0.005     (0)  
S(6)         2.994e-007
   SO4-2          2.926e-007  2.890e-007    -6.534    -6.539    -0.005    -71.32
   HSO4-          6.790e-009  6.769e-009    -8.168    -8.169    -0.001     31.56
   NaSO4-         1.662e-012  1.657e-012   -11.779   -11.781    -0.001    -16.14

------------------------------Saturation indices-------------------------------

	Phase               SI   log IAP   log K(460 K,  12 atm)

	H2(g)           -21.54    -24.39   -2.85  H2
	H2O(g)            1.04     -0.00   -1.04  H2O
	H2S(g)          -74.76    -82.95   -8.19  H2S
	O2(g)            -6.74     -9.67   -2.92  O2
	Sulfur          -57.68    -55.23    2.44  S


Reaction step 17.

Using solution 1.	
Using temperature 1.	

-----------------------------Solution composition------------------------------

	Elements           Molality       Moles

	Na               6.000e-007  6.000e-007
	S                2.994e-007  2.994e-007

----------------------------Description of solution----------------------------

                                       pH  =   5.657      Charge balance
                                       pe  =   4.516      Adjusted to redox equilibrium
       Specific Conductance (uS/cm, 200 oC) = 8
                          Density (g/cm3)  =   0.86467
                               Volume (L)  =   1.15651
                        Activity of water  =   1.000
                           Ionic strength  =  3.099e-006
                       Mass of water (kg)  =  1.000e+000
                 Total alkalinity (eq/kg)  =  1.215e-009
                    Total carbon (mol/kg)  =  0.000e+000
                       Total CO2 (mol/kg)  =  0.000e+000
                      Temperature (deg C)  = 200.00
                           Pressure (atm)  = 15.38
                  Electrical balance (eq)  = -2.724e-018
 Percent error, 100*(Cat-|An|)/(Cat+|An|)  =  -0.00
                               Iterations  =   9
                                  Total H  = 1.110124e+002
                                  Total O  = 5.550622e+001

----------------------------Distribution of species----------------------------

                                               Log       Log       Log    mole V
   Species          Molality    Activity  Molality  Activity     Gamma   cm3/mol

   OH-            2.223e-006  2.215e-006    -5.653    -5.655    -0.001    -26.30
   H+             2.211e-006  2.204e-006    -5.655    -5.657    -0.001      0.00
   H2O            5.551e+001  1.000e+000     1.744    -0.000     0.000     20.84
H(0)         2.103e-024
   H2             1.052e-024  1.052e-024   -23.978   -23.978     0.000     28.55
Na           6.000e-007
   Na+            6.000e-007  5.980e-007    -6.222    -6.223    -0.001    -12.33
   NaSO4-         1.678e-012  1.672e-012   -11.775   -11.777    -0.001    -24.76
   NaOH           1.306e-022  1.306e-022   -21.884   -21.884     0.000     (0)  
O(0)         2.863e-009
   O2             1.431e-009  1.431e-009    -8.844    -8.844     0.000     39.26
S(-2)        0.000e+000
   H2S            0.000e+000  0.000e+000   -74.884   -74.884     0.000     37.33
   HS-            0.000e+000  0.000e+000   -76.270   -76.271    -0.001      4.57
   S-2            0.000e+000  0.000e+000   -80.245   -80.251    -0.006     (0)  
S(6)         2.994e-007
   SO4-2          2.888e-007  2.850e-007    -6.539    -6.545    -0.006    -86.21
   HSO4-          1.064e-008  1.060e-008    -7.973    -7.975    -0.001     28.66
   NaSO4-         1.678e-012  1.672e-012   -11.775   -11.777    -0.001    -24.76

------------------------------Saturation indices-------------------------------

	Phase               SI   log IAP   log K(473 K,  15 atm)

	H2(g)           -21.17    -23.98   -2.81  H2
	H2O(g)            1.16     -0.00   -1.16  H2O
	H2S(g)          -73.68    -81.93   -8.25  H2S
	O2(g)            -5.97     -8.84   -2.88  O2
	Sulfur          -56.87    -54.54    2.33  S


Reaction step 18.

Using solution 1.	
Using temperature 1.	

-----------------------------Solution composition------------------------------

	Elements           Molality       Moles

	Na               6.000e-007  6.000e-007
	S                2.994e-007  2.994e-007

----------------------------Description of solution----------------------------

                                       pH  =   5.637      Charge balance
                                       pe  =   4.102      Adjusted to redox equilibrium
       Specific Conductance (uS/cm, 212 oC) = 9
                          Density (g/cm3)  =   0.84967
                               Volume (L)  =   1.17693
                        Activity of water  =   1.000
                           Ionic strength  =  3.196e-006
                       Mass of water (kg)  =  1.000e+000
                 Total alkalinity (eq/kg)  =  1.215e-009
                    Total carbon (mol/kg)  =  0.000e+000
                       Total CO2 (mol/kg)  =  0.000e+000
                      Temperature (deg C)  = 212.50
                           Pressure (atm)  = 19.83
                  Electrical balance (eq)  = -2.725e-018
 Percent error, 100*(Cat-|An|)/(Cat+|An|)  =  -0.00
                               Iterations  =  13
                                  Total H  = 1.110124e+002
                                  Total O  = 5.550622e+001

----------------------------Distribution of species----------------------------

                                               Log       Log       Log    mole V
   Species          Molality    Activity  Molality  Activity     Gamma   cm3/mol

   OH-            2.331e-006  2.322e-006    -5.633    -5.634    -0.002    -32.27
   H+             2.313e-006  2.305e-006    -5.636    -5.637    -0.002      0.00
   H2O            5.551e+001  1.000e+000     1.744    -0.000     0.000     21.20
H(0)         1.477e-023
   H2             7.383e-024  7.383e-024   -23.132   -23.132     0.000     28.54
Na           6.000e-007
   Na+            6.000e-007  5.979e-007    -6.222    -6.223    -0.002    -14.92
   NaSO4-         1.676e-012  1.670e-012   -11.776   -11.777    -0.002    -35.53
   NaOH           1.358e-022  1.358e-022   -21.867   -21.867     0.000     (0)  
O(0)         2.099e-009
   O2             1.049e-009  1.049e-009    -8.979    -8.979     0.000     40.56
S(-2)        0.000e+000
   H2S            0.000e+000  0.000e+000   -71.987   -71.987     0.000     37.33
   HS-            0.000e+000  0.000e+000   -73.510   -73.511    -0.002      0.07
   S-2            0.000e+000  0.000e+000   -77.362   -77.368    -0.006     (0)  
S(6)         2.994e-007
   SO4-2          2.832e-007  2.792e-007    -6.548    -6.554    -0.006   -102.28
   HSO4-          1.624e-008  1.618e-008    -7.789    -7.791    -0.002     25.01
   NaSO4-         1.676e-012  1.670e-012   -11.776   -11.777    -0.002    -35.53

------------------------------Saturation indices-------------------------------

	Phase               SI   log IAP   log K(485 K,  20 atm)

	H2(g)           -20.37    -23.13   -2.76  H2
	H2O(g)            1.26     -0.00   -1.26  H2O
	H2S(g)          -70.84    -79.15   -8.31  H2S
	O2(g)            -6.16     -8.98   -2.82  O2
	Sulfur          -54.74    -52.51    2.23  S


Reaction step 19.

Using solution 1.	
Using temperature 1.	

-----------------------------Solution composition------------------------------

	Elements           Molality       Moles

	Na               6.000e-007  6.000e-007
	S                2.994e-007  2.994e-007

----------------------------Description of solution----------------------------

                                       pH  =   5.625      Charge balance
                                       pe  =   3.789      Adjusted to redox equilibrium
       Specific Conductance (uS/cm, 225 oC) = 10
                          Density (g/cm3)  =   0.83379
                               Volume (L)  =   1.19935
                        Activity of water  =   1.000
                           Ionic strength  =  3.257e-006
                       Mass of water (kg)  =  1.000e+000
                 Total alkalinity (eq/kg)  =  1.215e-009
                    Total carbon (mol/kg)  =  0.000e+000
                       Total CO2 (mol/kg)  =  0.000e+000
                      Temperature (deg C)  = 225.00
                           Pressure (atm)  = 25.21
                  Electrical balance (eq)  = -2.729e-018
 Percent error, 100*(Cat-|An|)/(Cat+|An|)  =  -0.00
                               Iterations  =  16
                                  Total H  = 1.110124e+002
                                  Total O  = 5.550622e+001

----------------------------Distribution of species----------------------------

                                               Log       Log       Log    mole V
   Species          Molality    Activity  Molality  Activity     Gamma   cm3/mol

   OH-            2.407e-006  2.398e-006    -5.619    -5.620    -0.002    -39.83
   H+             2.381e-006  2.373e-006    -5.623    -5.625    -0.002      0.00
   H2O            5.551e+001  1.000e+000     1.744    -0.000     0.000     21.61
H(0)         6.301e-023
   H2             3.150e-023  3.150e-023   -22.502   -22.502     0.000     28.54
Na           6.000e-007
   Na+            6.000e-007  5.978e-007    -6.222    -6.223    -0.002    -17.75
   NaSO4-         1.654e-012  1.648e-012   -11.782   -11.783    -0.002    -49.17
   NaOH           1.385e-022  1.385e-022   -21.858   -21.858     0.000     (0)  
O(0)         3.475e-009
   O2             1.738e-009  1.738e-009    -8.760    -8.760     0.000     42.18
S(-2)        0.000e+000
   H2S            0.000e+000  0.000e+000   -69.935   -69.935     0.000     37.32
   HS-            0.000e+000  0.000e+000   -71.596   -71.598    -0.002     -5.64
   S-2            0.000e+000  0.000e+000   -75.325   -75.332    -0.006     (0)  
S(6)         2.994e-007
   SO4-2          2.753e-007  2.713e-007    -6.560    -6.567    -0.006   -119.54
   HSO4-          2.409e-008  2.400e-008    -7.618    -7.620    -0.002     20.36
   NaSO4-         1.654e-012  1.648e-012   -11.782   -11.783    -0.002    -49.17

------------------------------Saturation indices-------------------------------

	Phase               SI   log IAP   log K(498 K,  25 atm)

	H2(g)           -19.79    -22.50   -2.71  H2
	H2O(g)            1.36     -0.00   -1.36  H2O
	H2S(g)          -68.85    -77.22   -8.37  H2S
	O2(g)            -5.99     -8.76   -2.77  O2
	Sulfur          -53.25    -51.11    2.14  S


Reaction step 20.

Using solution 1.	
Using temperature 1.	

-----------------------------Solution composition------------------------------

	Elements           Molality       Moles

	Na               6.000e-007  6.000e-007
	S                2.994e-007  2.994e-007

----------------------------Description of solution----------------------------

                                       pH  =   5.619      Charge balance
                                       pe  =   3.469      Adjusted to redox equilibrium
       Specific Conductance (uS/cm, 237 oC) = 11
                          Density (g/cm3)  =   0.81693
                               Volume (L)  =   1.22409
                        Activity of water  =   1.000
                           Ionic strength  =  3.279e-006
                       Mass of water (kg)  =  1.000e+000
                 Total alkalinity (eq/kg)  =  1.215e-009
                    Total carbon (mol/kg)  =  0.000e+000
                       Total CO2 (mol/kg)  =  0.000e+000
                      Temperature (deg C)  = 237.50
                           Pressure (atm)  = 31.64
                  Electrical balance (eq)  = -2.730e-018
 Percent error, 100*(Cat-|An|)/(Cat+|An|)  =  -0.00
                               Iterations  =  19
                                  Total H  = 1.110124e+002
                                  Total O  = 5.550622e+001

----------------------------Distribution of species----------------------------

                                               Log       Log       Log    mole V
   Species          Molality    Activity  Molality  Activity     Gamma   cm3/mol

   OH-            2.450e-006  2.441e-006    -5.611    -5.612    -0.002    -49.54
   H+             2.415e-006  2.405e-006    -5.617    -5.619    -0.002      0.00
   H2O            5.551e+001  1.000e+000     1.744    -0.000     0.000     22.05
H(0)         2.693e-022
   H2             1.346e-022  1.346e-022   -21.871   -21.871     0.000     28.54
Na           6.000e-007
   Na+            6.000e-007  5.977e-007    -6.222    -6.224    -0.002    -20.82
   NaSO4-         1.609e-012  1.603e-012   -11.793   -11.795    -0.002    -66.67
   NaOH           1.386e-022  1.386e-022   -21.858   -21.858     0.000     (0)  
O(0)         4.845e-009
   O2             2.422e-009  2.422e-009    -8.616    -8.616     0.000     44.24
S(-2)        0.000e+000
   H2S            0.000e+000  0.000e+000   -67.865   -67.865     0.000     37.31
   HS-            0.000e+000  0.000e+000   -69.664   -69.665    -0.002    -12.98
   S-2            0.000e+000  0.000e+000   -73.271   -73.278    -0.007     (0)  
S(6)         2.994e-007
   SO4-2          2.647e-007  2.607e-007    -6.577    -6.584    -0.007   -137.98
   HSO4-          3.465e-008  3.452e-008    -7.460    -7.462    -0.002     14.38
   NaSO4-         1.609e-012  1.603e-012   -11.793   -11.795    -0.002    -66.67

------------------------------Saturation indices-------------------------------

	Phase               SI   log IAP   log K(510 K,  32 atm)

	H2(g)           -19.21    -21.87   -2.66  H2
	H2O(g)            1.45     -0.00   -1.45  H2O
	H2S(g)          -66.85    -75.28   -8.43  H2S
	O2(g)            -5.90     -8.62   -2.71  O2
	Sulfur          -51.75    -49.69    2.06  S


Reaction step 21.

Using solution 1.	
Using temperature 1.	

-----------------------------Solution composition------------------------------

	Elements           Molality       Moles

	Na               6.000e-007  6.000e-007
	S                2.994e-007  2.994e-007

----------------------------Description of solution----------------------------

                                       pH  =   5.619      Charge balance
                                       pe  =   3.034      Adjusted to redox equilibrium
       Specific Conductance (uS/cm, 250 oC) = 12
                          Density (g/cm3)  =   0.79899
                               Volume (L)  =   1.25159
                        Activity of water  =   1.000
                           Ionic strength  =  3.266e-006
                       Mass of water (kg)  =  1.000e+000
                 Total alkalinity (eq/kg)  =  1.215e-009
                    Total carbon (mol/kg)  =  0.000e+000
                       Total CO2 (mol/kg)  =  0.000e+000
                      Temperature (deg C)  = 250.00
                           Pressure (atm)  = 39.24
                  Electrical balance (eq)  = -2.724e-018
 Percent error, 100*(Cat-|An|)/(Cat+|An|)  =  -0.00
                               Iterations  =  23
                                  Total H  = 1.110124e+002
                                  Total O  = 5.550622e+001

----------------------------Distribution of species----------------------------

                                               Log       Log       Log    mole V
   Species          Molality    Activity  Molality  Activity     Gamma   cm3/mol

   OH-            2.464e-006  2.454e-006    -5.608    -5.610    -0.002    -62.21
   H+             2.415e-006  2.405e-006    -5.617    -5.619    -0.002      0.00
   H2O            5.551e+001  1.000e+000     1.744    -0.000     0.000     22.55
H(0)         1.900e-021
   H2             9.502e-022  9.502e-022   -21.022   -21.022     0.000     28.53
Na           6.000e-007
   Na+            6.000e-007  5.976e-007    -6.222    -6.224    -0.002    -24.13
   NaSO4-         1.543e-012  1.537e-012   -11.812   -11.813    -0.002    -89.47
   NaOH           1.358e-022  1.358e-022   -21.867   -21.867     0.000     (0)  
O(0)         2.117e-009
   O2             1.059e-009  1.059e-009    -8.975    -8.975     0.000     46.90
S(-2)        0.000e+000
   H2S            0.000e+000  0.000e+000   -64.910   -64.910     0.000     37.30
   HS-            0.000e+000  0.000e+000   -66.847   -66.849    -0.002    -22.56
   S-2            0.000e+000  0.000e+000   -70.335   -70.342    -0.007     (0)  
S(6)         2.994e-007
   SO4-2          2.512e-007  2.471e-007    -6.600    -6.607    -0.007   -157.62
   HSO4-          4.822e-008  4.803e-008    -7.317    -7.319    -0.002      6.57
   NaSO4-         1.543e-012  1.537e-012   -11.812   -11.813    -0.002    -89.47

------------------------------Saturation indices-------------------------------

	Phase               SI   log IAP   log K(523 K,  39 atm)

	H2(g)           -18.41    -21.02   -2.61  H2
	H2O(g)            1.53     -0.00   -1.53  H2O
	H2S(g)          -63.97    -72.47   -8.50  H2S
	O2(g)            -6.32     -8.98   -2.65  O2
	Sulfur          -49.59    -47.60    1.98  S


------------------
End of simulation.
------------------

------------------------------------
Reading input data for simulation 4.
------------------------------------

-------------------------------
End of Run after 0.057 Seconds.
-------------------------------

