WARNING: Database file from DATABASE keyword is used; command line argument ignored.
   Input file: NaCl
  Output file: NaCl.out
Database file: ../database/pitzer.dat

------------------
Reading data base.
------------------

	SOLUTION_MASTER_SPECIES
	SOLUTION_SPECIES
	PHASES
	PITZER
	EXCHANGE_MASTER_SPECIES
	EXCHANGE_SPECIES
	SURFACE_MASTER_SPECIES
	SURFACE_SPECIES
	END
------------------------------------
Reading input data for simulation 1.
------------------------------------

	DATABASE ../database/pitzer.dat
	SOLUTION 1
	PHASES
	Halite
		NaCl = Na+ + Cl-
		log_k	   1.582
		delta_h 0.918 kcal
		vm 27
	EQUILIBRIUM_PHASES
	Halite
	REACTION_PRESSURE
	 1 1000 in 20
	USER_GRAPH
	 -headings P g_NaCl/kgw
	 10 graph_x pressure
	 20 graph_y tot("Na") * 58.44
	END
-------------------------------------------
Beginning of initial solution calculations.
-------------------------------------------

Initial solution 1.	

-----------------------------Solution composition------------------------------

	Elements           Molality       Moles

	Pure water     

----------------------------Description of solution----------------------------

                                       pH  =   7.000    
                                       pe  =   4.000    
       Specific Conductance (uS/cm, 25 oC) = 0
                          Density (g/cm3)  =   0.99704
                               Volume (L)  =   1.00297
                        Activity of water  =   1.000
                           Ionic strength  =  1.004e-007
                       Mass of water (kg)  =  1.000e+000
                 Total alkalinity (eq/kg)  =  7.510e-010
                    Total carbon (mol/kg)  =  0.000e+000
                       Total CO2 (mol/kg)  =  0.000e+000
                      Temperature (deg C)  =  25.00
                  Electrical balance (eq)  = -7.510e-010
 Percent error, 100*(Cat-|An|)/(Cat+|An|)  =  -0.37
                               Iterations  =   3
                         Gamma iterations  =   2
                      Osmotic coefficient  =   0.99988
                         Density of water  =   0.99706
                                  Total H  = 1.110124e+002
                                  Total O  = 5.550622e+001

----------------------------Distribution of species----------------------------

                                                    MacInnes  MacInnes
                                MacInnes       Log       Log       Log    mole V
   Species          Molality    Activity  Molality  Activity     Gamma   cm3/mol

   OH-            1.008e-007  1.008e-007    -6.997    -6.997    -0.000     -3.91
   H+             1.000e-007  1.000e-007    -7.000    -7.000    -0.000      0.00
   H2O            5.551e+001  1.000e+000     1.744    -0.000     0.000     18.07

------------------------------Saturation indices-------------------------------

	Phase               SI   log IAP   log K(298 K,   1 atm)

	H2O(g)           -1.50     -0.00    1.50  H2O


-----------------------------------------
Beginning of batch-reaction calculations.
-----------------------------------------

Reaction step 1.

Using solution 1.	
Using pure phase assemblage 1.	
Using pressure 1.	

-------------------------------Phase assemblage--------------------------------

                                                      Moles in assemblage
Phase               SI  log IAP  log K(T, P)   Initial       Final       Delta

Halite            0.00     1.58      1.58   1.000e+001  3.853e+000 -6.147e+000

-----------------------------Solution composition------------------------------

	Elements           Molality       Moles

	Cl               6.147e+000  6.147e+000
	Na               6.147e+000  6.147e+000

----------------------------Description of solution----------------------------

                                       pH  =   6.380      Charge balance
                                       pe  =   4.000      Adjusted to redox equilibrium
       Specific Conductance (uS/cm, 25 oC) = 446624
                          Density (g/cm3)  =   1.19694
                               Volume (L)  =   1.13559
                        Activity of water  =   0.752
                           Ionic strength  =  6.147e+000
                       Mass of water (kg)  =  1.000e+000
                 Total alkalinity (eq/kg)  =  7.510e-010
                    Total carbon (mol/kg)  =  0.000e+000
                       Total CO2 (mol/kg)  =  0.000e+000
                      Temperature (deg C)  =  25.00
                  Electrical balance (eq)  = -7.510e-010
 Percent error, 100*(Cat-|An|)/(Cat+|An|)  =  -0.00
                               Iterations  =  17
                         Gamma iterations  =   6
                      Osmotic coefficient  =   1.28522
                         Density of water  =   0.99706
                                  Total H  = 1.110124e+002
                                  Total O  = 5.550622e+001

----------------------------Distribution of species----------------------------

                                                    MacInnes  MacInnes
                                MacInnes       Log       Log       Log    mole V
   Species          Molality    Activity  Molality  Activity     Gamma   cm3/mol

   OH-            5.482e-008  1.820e-008    -7.261    -7.740    -0.479      4.00
   H+             5.407e-008  4.165e-007    -7.267    -6.380     0.887      0.00
   H2O            5.551e+001  7.523e-001     1.744    -0.124     0.000     18.07
Cl           6.147e+000
   Cl-            6.147e+000  3.771e+000     0.789     0.576    -0.212     20.12
Na           6.147e+000
   Na+            6.147e+000  1.013e+001     0.789     1.006     0.217      1.46

------------------------------Saturation indices-------------------------------

	Phase               SI   log IAP   log K(298 K,   1 atm)

	H2O(g)           -1.63     -0.12    1.50  H2O
	Halite            0.00      1.58    1.58  NaCl


Reaction step 2.

Using solution 1.	
Using pure phase assemblage 1.	
Using pressure 1.	

-------------------------------Phase assemblage--------------------------------

                                                      Moles in assemblage
Phase               SI  log IAP  log K(T, P)   Initial       Final       Delta

Halite           -0.00     1.59      1.59   1.000e+001  3.834e+000 -6.166e+000

-----------------------------Solution composition------------------------------

	Elements           Molality       Moles

	Cl               6.166e+000  6.166e+000
	Na               6.166e+000  6.166e+000

----------------------------Description of solution----------------------------

                                       pH  =   6.372      Charge balance
                                       pe  =   4.000      Adjusted to redox equilibrium
       Specific Conductance (uS/cm, 25 oC) = 447989
                          Density (g/cm3)  =   1.19870
                               Volume (L)  =   1.13485
                        Activity of water  =   0.751
                           Ionic strength  =  6.166e+000
                       Mass of water (kg)  =  1.000e+000
                 Total alkalinity (eq/kg)  =  7.510e-010
                    Total carbon (mol/kg)  =  0.000e+000
                       Total CO2 (mol/kg)  =  0.000e+000
                      Temperature (deg C)  =  25.00
                           Pressure (atm)  = 53.58
                  Electrical balance (eq)  = -7.510e-010
 Percent error, 100*(Cat-|An|)/(Cat+|An|)  =  -0.00
                               Iterations  =  19
                         Gamma iterations  =   6
                      Osmotic coefficient  =   1.28683
                         Density of water  =   0.99706
                                  Total H  = 1.110124e+002
                                  Total O  = 5.550622e+001

----------------------------Distribution of species----------------------------

                                                    MacInnes  MacInnes
                                MacInnes       Log       Log       Log    mole V
   Species          Molality    Activity  Molality  Activity     Gamma   cm3/mol

   OH-            5.541e-008  1.836e-008    -7.256    -7.736    -0.480      4.19
   H+             5.466e-008  4.246e-007    -7.262    -6.372     0.890      0.00
   H2O            5.551e+001  7.514e-001     1.744    -0.124     0.000     18.03
Cl           6.166e+000
   Cl-            6.166e+000  3.786e+000     0.790     0.578    -0.212     20.12
Na           6.166e+000
   Na+            6.166e+000  1.020e+001     0.790     1.009     0.219      1.66

------------------------------Saturation indices-------------------------------

	Phase               SI   log IAP   log K(298 K,  54 atm)

	H2O(g)           -1.61     -0.12    1.49  H2O
	Halite            0.00      1.59    1.59  NaCl


Reaction step 3.

Using solution 1.	
Using pure phase assemblage 1.	
Using pressure 1.	

-------------------------------Phase assemblage--------------------------------

                                                      Moles in assemblage
Phase               SI  log IAP  log K(T, P)   Initial       Final       Delta

Halite           -0.00     1.59      1.59   1.000e+001  3.816e+000 -6.184e+000

-----------------------------Solution composition------------------------------

	Elements           Molality       Moles

	Cl               6.184e+000  6.184e+000
	Na               6.184e+000  6.184e+000

----------------------------Description of solution----------------------------

                                       pH  =   6.364      Charge balance
                                       pe  =   4.000      Adjusted to redox equilibrium
       Specific Conductance (uS/cm, 25 oC) = 449257
                          Density (g/cm3)  =   1.20043
                               Volume (L)  =   1.13408
                        Activity of water  =   0.750
                           Ionic strength  =  6.184e+000
                       Mass of water (kg)  =  1.000e+000
                 Total alkalinity (eq/kg)  =  7.510e-010
                    Total carbon (mol/kg)  =  0.000e+000
                       Total CO2 (mol/kg)  =  0.000e+000
                      Temperature (deg C)  =  25.00
                           Pressure (atm)  = 106.16
                  Electrical balance (eq)  = -7.510e-010
 Percent error, 100*(Cat-|An|)/(Cat+|An|)  =  -0.00
                               Iterations  =  19
                         Gamma iterations  =   6
                      Osmotic coefficient  =   1.28833
                         Density of water  =   0.99706
                                  Total H  = 1.110124e+002
                                  Total O  = 5.550622e+001

----------------------------Distribution of species----------------------------

                                                    MacInnes  MacInnes
                                MacInnes       Log       Log       Log    mole V
   Species          Molality    Activity  Molality  Activity     Gamma   cm3/mol

   OH-            5.599e-008  1.853e-008    -7.252    -7.732    -0.480      4.37
   H+             5.524e-008  4.326e-007    -7.258    -6.364     0.894      0.00
   H2O            5.551e+001  7.505e-001     1.744    -0.125     0.000     17.98
Cl           6.184e+000
   Cl-            6.184e+000  3.799e+000     0.791     0.580    -0.212     20.12
Na           6.184e+000
   Na+            6.184e+000  1.027e+001     0.791     1.012     0.220      1.85

------------------------------Saturation indices-------------------------------

	Phase               SI   log IAP   log K(298 K, 106 atm)

	H2O(g)           -1.59     -0.12    1.47  H2O
	Halite            0.00      1.59    1.59  NaCl


Reaction step 4.

Using solution 1.	
Using pure phase assemblage 1.	
Using pressure 1.	

-------------------------------Phase assemblage--------------------------------

                                                      Moles in assemblage
Phase               SI  log IAP  log K(T, P)   Initial       Final       Delta

Halite           -0.00     1.60      1.60   1.000e+001  3.800e+000 -6.200e+000

-----------------------------Solution composition------------------------------

	Elements           Molality       Moles

	Cl               6.200e+000  6.200e+000
	Na               6.200e+000  6.200e+000

----------------------------Description of solution----------------------------

                                       pH  =   6.356      Charge balance
                                       pe  =   4.000      Adjusted to redox equilibrium
       Specific Conductance (uS/cm, 25 oC) = 450430
                          Density (g/cm3)  =   1.20213
                               Volume (L)  =   1.13328
                        Activity of water  =   0.750
                           Ionic strength  =  6.200e+000
                       Mass of water (kg)  =  1.000e+000
                 Total alkalinity (eq/kg)  =  7.510e-010
                    Total carbon (mol/kg)  =  0.000e+000
                       Total CO2 (mol/kg)  =  0.000e+000
                      Temperature (deg C)  =  25.00
                           Pressure (atm)  = 158.74
                  Electrical balance (eq)  = -7.510e-010
 Percent error, 100*(Cat-|An|)/(Cat+|An|)  =  -0.00
                               Iterations  =  18
                         Gamma iterations  =   6
                      Osmotic coefficient  =   1.28972
                         Density of water  =   0.99706
                                  Total H  = 1.110124e+002
                                  Total O  = 5.550622e+001

----------------------------Distribution of species----------------------------

                                                    MacInnes  MacInnes
                                MacInnes       Log       Log       Log    mole V
   Species          Molality    Activity  Molality  Activity     Gamma   cm3/mol

   OH-            5.657e-008  1.870e-008    -7.247    -7.728    -0.481      4.55
   H+             5.582e-008  4.403e-007    -7.253    -6.356     0.897      0.00
   H2O            5.551e+001  7.497e-001     1.744    -0.125     0.000     17.94
Cl           6.200e+000
   Cl-            6.200e+000  3.811e+000     0.792     0.581    -0.211     20.13
Na           6.200e+000
   Na+            6.200e+000  1.034e+001     0.792     1.015     0.222      2.03

------------------------------Saturation indices-------------------------------

	Phase               SI   log IAP   log K(298 K, 159 atm)

	H2O(g)           -1.58     -0.13    1.45  H2O
	Halite           -0.00      1.60    1.60  NaCl


Reaction step 5.

Using solution 1.	
Using pure phase assemblage 1.	
Using pressure 1.	

-------------------------------Phase assemblage--------------------------------

                                                      Moles in assemblage
Phase               SI  log IAP  log K(T, P)   Initial       Final       Delta

Halite           -0.00     1.60      1.60   1.000e+001  3.785e+000 -6.215e+000

-----------------------------Solution composition------------------------------

	Elements           Molality       Moles

	Cl               6.215e+000  6.215e+000
	Na               6.215e+000  6.215e+000

----------------------------Description of solution----------------------------

                                       pH  =   6.349      Charge balance
                                       pe  =   4.000      Adjusted to redox equilibrium
       Specific Conductance (uS/cm, 25 oC) = 451513
                          Density (g/cm3)  =   1.20379
                               Volume (L)  =   1.13245
                        Activity of water  =   0.749
                           Ionic strength  =  6.215e+000
                       Mass of water (kg)  =  1.000e+000
                 Total alkalinity (eq/kg)  =  7.510e-010
                    Total carbon (mol/kg)  =  0.000e+000
                       Total CO2 (mol/kg)  =  0.000e+000
                      Temperature (deg C)  =  25.00
                           Pressure (atm)  = 211.32
                  Electrical balance (eq)  = -7.510e-010
 Percent error, 100*(Cat-|An|)/(Cat+|An|)  =  -0.00
                               Iterations  =  16
                         Gamma iterations  =   6
                      Osmotic coefficient  =   1.29100
                         Density of water  =   0.99706
                                  Total H  = 1.110124e+002
                                  Total O  = 5.550622e+001

----------------------------Distribution of species----------------------------

                                                    MacInnes  MacInnes
                                MacInnes       Log       Log       Log    mole V
   Species          Molality    Activity  Molality  Activity     Gamma   cm3/mol

   OH-            5.715e-008  1.887e-008    -7.243    -7.724    -0.481      4.72
   H+             5.640e-008  4.479e-007    -7.249    -6.349     0.900      0.00
   H2O            5.551e+001  7.489e-001     1.744    -0.126     0.000     17.90
Cl           6.215e+000
   Cl-            6.215e+000  3.823e+000     0.793     0.582    -0.211     20.13
Na           6.215e+000
   Na+            6.215e+000  1.040e+001     0.793     1.017     0.224      2.20

------------------------------Saturation indices-------------------------------

	Phase               SI   log IAP   log K(298 K, 211 atm)

	H2O(g)           -1.56     -0.13    1.44  H2O
	Halite            0.00      1.60    1.60  NaCl


Reaction step 6.

Using solution 1.	
Using pure phase assemblage 1.	
Using pressure 1.	

-------------------------------Phase assemblage--------------------------------

                                                      Moles in assemblage
Phase               SI  log IAP  log K(T, P)   Initial       Final       Delta

Halite           -0.00     1.60      1.60   1.000e+001  3.771e+000 -6.229e+000

-----------------------------Solution composition------------------------------

	Elements           Molality       Moles

	Cl               6.229e+000  6.229e+000
	Na               6.229e+000  6.229e+000

----------------------------Description of solution----------------------------

                                       pH  =   6.342      Charge balance
                                       pe  =   4.000      Adjusted to redox equilibrium
       Specific Conductance (uS/cm, 25 oC) = 452511
                          Density (g/cm3)  =   1.20543
                               Volume (L)  =   1.13159
                        Activity of water  =   0.748
                           Ionic strength  =  6.229e+000
                       Mass of water (kg)  =  1.000e+000
                 Total alkalinity (eq/kg)  =  7.510e-010
                    Total carbon (mol/kg)  =  0.000e+000
                       Total CO2 (mol/kg)  =  0.000e+000
                      Temperature (deg C)  =  25.00
                           Pressure (atm)  = 263.89
                  Electrical balance (eq)  = -7.510e-010
 Percent error, 100*(Cat-|An|)/(Cat+|An|)  =  -0.00
                               Iterations  =  17
                         Gamma iterations  =   6
                      Osmotic coefficient  =   1.29218
                         Density of water  =   0.99706
                                  Total H  = 1.110124e+002
                                  Total O  = 5.550622e+001

----------------------------Distribution of species----------------------------

                                                    MacInnes  MacInnes
                                MacInnes       Log       Log       Log    mole V
   Species          Molality    Activity  Molality  Activity     Gamma   cm3/mol

   OH-            5.772e-008  1.904e-008    -7.239    -7.720    -0.482      4.89
   H+             5.697e-008  4.553e-007    -7.244    -6.342     0.903      0.00
   H2O            5.551e+001  7.483e-001     1.744    -0.126     0.000     17.86
Cl           6.229e+000
   Cl-            6.229e+000  3.833e+000     0.794     0.584    -0.211     20.14
Na           6.229e+000
   Na+            6.229e+000  1.046e+001     0.794     1.019     0.225      2.37

------------------------------Saturation indices-------------------------------

	Phase               SI   log IAP   log K(298 K, 264 atm)

	H2O(g)           -1.55     -0.13    1.42  H2O
	Halite            0.00      1.60    1.60  NaCl


Reaction step 7.

Using solution 1.	
Using pure phase assemblage 1.	
Using pressure 1.	

-------------------------------Phase assemblage--------------------------------

                                                      Moles in assemblage
Phase               SI  log IAP  log K(T, P)   Initial       Final       Delta

Halite           -0.00     1.61      1.61   1.000e+001  3.758e+000 -6.242e+000

-----------------------------Solution composition------------------------------

	Elements           Molality       Moles

	Cl               6.242e+000  6.242e+000
	Na               6.242e+000  6.242e+000

----------------------------Description of solution----------------------------

                                       pH  =   6.335      Charge balance
                                       pe  =   4.000      Adjusted to redox equilibrium
       Specific Conductance (uS/cm, 25 oC) = 453426
                          Density (g/cm3)  =   1.20703
                               Volume (L)  =   1.13070
                        Activity of water  =   0.748
                           Ionic strength  =  6.242e+000
                       Mass of water (kg)  =  1.000e+000
                 Total alkalinity (eq/kg)  =  7.510e-010
                    Total carbon (mol/kg)  =  0.000e+000
                       Total CO2 (mol/kg)  =  0.000e+000
                      Temperature (deg C)  =  25.00
                           Pressure (atm)  = 316.47
                  Electrical balance (eq)  = -7.510e-010
 Percent error, 100*(Cat-|An|)/(Cat+|An|)  =  -0.00
                               Iterations  =  18
                         Gamma iterations  =   6
                      Osmotic coefficient  =   1.29327
                         Density of water  =   0.99706
                                  Total H  = 1.110124e+002
                                  Total O  = 5.550622e+001

----------------------------Distribution of species----------------------------

                                                    MacInnes  MacInnes
                                MacInnes       Log       Log       Log    mole V
   Species          Molality    Activity  Molality  Activity     Gamma   cm3/mol

   OH-            5.829e-008  1.920e-008    -7.234    -7.717    -0.482      5.05
   H+             5.754e-008  4.625e-007    -7.240    -6.335     0.905      0.00
   H2O            5.551e+001  7.476e-001     1.744    -0.126     0.000     17.82
Cl           6.242e+000
   Cl-            6.242e+000  3.843e+000     0.795     0.585    -0.211     20.15
Na           6.242e+000
   Na+            6.242e+000  1.051e+001     0.795     1.022     0.226      2.53

------------------------------Saturation indices-------------------------------

	Phase               SI   log IAP   log K(298 K, 316 atm)

	H2O(g)           -1.53     -0.13    1.40  H2O
	Halite            0.00      1.61    1.61  NaCl


Reaction step 8.

Using solution 1.	
Using pure phase assemblage 1.	
Using pressure 1.	

-------------------------------Phase assemblage--------------------------------

                                                      Moles in assemblage
Phase               SI  log IAP  log K(T, P)   Initial       Final       Delta

Halite           -0.00     1.61      1.61   1.000e+001  3.746e+000 -6.254e+000

-----------------------------Solution composition------------------------------

	Elements           Molality       Moles

	Cl               6.254e+000  6.254e+000
	Na               6.254e+000  6.254e+000

----------------------------Description of solution----------------------------

                                       pH  =   6.328      Charge balance
                                       pe  =   4.000      Adjusted to redox equilibrium
       Specific Conductance (uS/cm, 25 oC) = 454263
                          Density (g/cm3)  =   1.20860
                               Volume (L)  =   1.12980
                        Activity of water  =   0.747
                           Ionic strength  =  6.254e+000
                       Mass of water (kg)  =  1.000e+000
                 Total alkalinity (eq/kg)  =  7.510e-010
                    Total carbon (mol/kg)  =  0.000e+000
                       Total CO2 (mol/kg)  =  0.000e+000
                      Temperature (deg C)  =  25.00
                           Pressure (atm)  = 369.05
                  Electrical balance (eq)  = -7.510e-010
 Percent error, 100*(Cat-|An|)/(Cat+|An|)  =  -0.00
                               Iterations  =  18
                         Gamma iterations  =   6
                      Osmotic coefficient  =   1.29426
                         Density of water  =   0.99706
                                  Total H  = 1.110124e+002
                                  Total O  = 5.550622e+001

----------------------------Distribution of species----------------------------

                                                    MacInnes  MacInnes
                                MacInnes       Log       Log       Log    mole V
   Species          Molality    Activity  Molality  Activity     Gamma   cm3/mol

   OH-            5.886e-008  1.937e-008    -7.230    -7.713    -0.483      5.20
   H+             5.811e-008  4.694e-007    -7.236    -6.328     0.907      0.00
   H2O            5.551e+001  7.471e-001     1.744    -0.127     0.000     17.78
Cl           6.254e+000
   Cl-            6.254e+000  3.852e+000     0.796     0.586    -0.210     20.15
Na           6.254e+000
   Na+            6.254e+000  1.056e+001     0.796     1.024     0.227      2.69

------------------------------Saturation indices-------------------------------

	Phase               SI   log IAP   log K(298 K, 369 atm)

	H2O(g)           -1.51     -0.13    1.39  H2O
	Halite           -0.00      1.61    1.61  NaCl


Reaction step 9.

Using solution 1.	
Using pure phase assemblage 1.	
Using pressure 1.	

-------------------------------Phase assemblage--------------------------------

                                                      Moles in assemblage
Phase               SI  log IAP  log K(T, P)   Initial       Final       Delta

Halite           -0.00     1.61      1.61   1.000e+001  3.736e+000 -6.264e+000

-----------------------------Solution composition------------------------------

	Elements           Molality       Moles

	Cl               6.264e+000  6.264e+000
	Na               6.264e+000  6.264e+000

----------------------------Description of solution----------------------------

                                       pH  =   6.322      Charge balance
                                       pe  =   4.000      Adjusted to redox equilibrium
       Specific Conductance (uS/cm, 25 oC) = 455026
                          Density (g/cm3)  =   1.21014
                               Volume (L)  =   1.12887
                        Activity of water  =   0.747
                           Ionic strength  =  6.264e+000
                       Mass of water (kg)  =  1.000e+000
                 Total alkalinity (eq/kg)  =  7.510e-010
                    Total carbon (mol/kg)  =  0.000e+000
                       Total CO2 (mol/kg)  =  0.000e+000
                      Temperature (deg C)  =  25.00
                           Pressure (atm)  = 421.63
                  Electrical balance (eq)  = -7.510e-010
 Percent error, 100*(Cat-|An|)/(Cat+|An|)  =  -0.00
                               Iterations  =  19
                         Gamma iterations  =   6
                      Osmotic coefficient  =   1.29516
                         Density of water  =   0.99706
                                  Total H  = 1.110124e+002
                                  Total O  = 5.550622e+001

----------------------------Distribution of species----------------------------

                                                    MacInnes  MacInnes
                                MacInnes       Log       Log       Log    mole V
   Species          Molality    Activity  Molality  Activity     Gamma   cm3/mol

   OH-            5.942e-008  1.954e-008    -7.226    -7.709    -0.483      5.35
   H+             5.867e-008  4.763e-007    -7.232    -6.322     0.909      0.00
   H2O            5.551e+001  7.465e-001     1.744    -0.127     0.000     17.74
Cl           6.264e+000
   Cl-            6.264e+000  3.860e+000     0.797     0.587    -0.210     20.16
Na           6.264e+000
   Na+            6.264e+000  1.060e+001     0.797     1.025     0.228      2.84

------------------------------Saturation indices-------------------------------

	Phase               SI   log IAP   log K(298 K, 422 atm)

	H2O(g)           -1.50     -0.13    1.37  H2O
	Halite            0.00      1.61    1.61  NaCl


Reaction step 10.

Using solution 1.	
Using pure phase assemblage 1.	
Using pressure 1.	

-------------------------------Phase assemblage--------------------------------

                                                      Moles in assemblage
Phase               SI  log IAP  log K(T, P)   Initial       Final       Delta

Halite           -0.00     1.61      1.62   1.000e+001  3.726e+000 -6.274e+000

-----------------------------Solution composition------------------------------

	Elements           Molality       Moles

	Cl               6.274e+000  6.274e+000
	Na               6.274e+000  6.274e+000

----------------------------Description of solution----------------------------

                                       pH  =   6.316      Charge balance
                                       pe  =   4.000      Adjusted to redox equilibrium
       Specific Conductance (uS/cm, 25 oC) = 455718
                          Density (g/cm3)  =   1.21166
                               Volume (L)  =   1.12792
                        Activity of water  =   0.746
                           Ionic strength  =  6.274e+000
                       Mass of water (kg)  =  1.000e+000
                 Total alkalinity (eq/kg)  =  7.510e-010
                    Total carbon (mol/kg)  =  0.000e+000
                       Total CO2 (mol/kg)  =  0.000e+000
                      Temperature (deg C)  =  25.00
                           Pressure (atm)  = 474.21
                  Electrical balance (eq)  = -7.510e-010
 Percent error, 100*(Cat-|An|)/(Cat+|An|)  =  -0.00
                               Iterations  =  20
                         Gamma iterations  =   6
                      Osmotic coefficient  =   1.29598
                         Density of water  =   0.99706
                                  Total H  = 1.110124e+002
                                  Total O  = 5.550622e+001

----------------------------Distribution of species----------------------------

                                                    MacInnes  MacInnes
                                MacInnes       Log       Log       Log    mole V
   Species          Molality    Activity  Molality  Activity     Gamma   cm3/mol

   OH-            5.999e-008  1.971e-008    -7.222    -7.705    -0.483      5.50
   H+             5.923e-008  4.829e-007    -7.227    -6.316     0.911      0.00
   H2O            5.551e+001  7.461e-001     1.744    -0.127     0.000     17.70
Cl           6.274e+000
   Cl-            6.274e+000  3.867e+000     0.798     0.587    -0.210     20.17
Na           6.274e+000
   Na+            6.274e+000  1.064e+001     0.798     1.027     0.229      2.98

------------------------------Saturation indices-------------------------------

	Phase               SI   log IAP   log K(298 K, 474 atm)

	H2O(g)           -1.48     -0.13    1.35  H2O
	Halite           -0.00      1.61    1.61  NaCl


Reaction step 11.

Using solution 1.	
Using pure phase assemblage 1.	
Using pressure 1.	

-------------------------------Phase assemblage--------------------------------

                                                      Moles in assemblage
Phase               SI  log IAP  log K(T, P)   Initial       Final       Delta

Halite           -0.00     1.62      1.62   1.000e+001  3.717e+000 -6.283e+000

-----------------------------Solution composition------------------------------

	Elements           Molality       Moles

	Cl               6.283e+000  6.283e+000
	Na               6.283e+000  6.283e+000

----------------------------Description of solution----------------------------

                                       pH  =   6.310      Charge balance
                                       pe  =   4.000      Adjusted to redox equilibrium
       Specific Conductance (uS/cm, 25 oC) = 456343
                          Density (g/cm3)  =   1.21315
                               Volume (L)  =   1.12696
                        Activity of water  =   0.746
                           Ionic strength  =  6.283e+000
                       Mass of water (kg)  =  1.000e+000
                 Total alkalinity (eq/kg)  =  7.510e-010
                    Total carbon (mol/kg)  =  0.000e+000
                       Total CO2 (mol/kg)  =  0.000e+000
                      Temperature (deg C)  =  25.00
                           Pressure (atm)  = 526.79
                  Electrical balance (eq)  = -7.510e-010
 Percent error, 100*(Cat-|An|)/(Cat+|An|)  =  -0.00
                               Iterations  =  19
                         Gamma iterations  =   6
                      Osmotic coefficient  =   1.29672
                         Density of water  =   0.99706
                                  Total H  = 1.110124e+002
                                  Total O  = 5.550622e+001

----------------------------Distribution of species----------------------------

                                                    MacInnes  MacInnes
                                MacInnes       Log       Log       Log    mole V
   Species          Molality    Activity  Molality  Activity     Gamma   cm3/mol

   OH-            6.054e-008  1.988e-008    -7.218    -7.702    -0.484      5.64
   H+             5.979e-008  4.893e-007    -7.223    -6.310     0.913      0.00
   H2O            5.551e+001  7.456e-001     1.744    -0.127     0.000     17.67
Cl           6.283e+000
   Cl-            6.283e+000  3.873e+000     0.798     0.588    -0.210     20.18
Na           6.283e+000
   Na+            6.283e+000  1.068e+001     0.798     1.028     0.230      3.12

------------------------------Saturation indices-------------------------------

	Phase               SI   log IAP   log K(298 K, 527 atm)

	H2O(g)           -1.47     -0.13    1.34  H2O
	Halite           -0.00      1.62    1.62  NaCl


Reaction step 12.

Using solution 1.	
Using pure phase assemblage 1.	
Using pressure 1.	

-------------------------------Phase assemblage--------------------------------

                                                      Moles in assemblage
Phase               SI  log IAP  log K(T, P)   Initial       Final       Delta

Halite           -0.00     1.62      1.62   1.000e+001  3.710e+000 -6.290e+000

-----------------------------Solution composition------------------------------

	Elements           Molality       Moles

	Cl               6.290e+000  6.290e+000
	Na               6.290e+000  6.290e+000

----------------------------Description of solution----------------------------

                                       pH  =   6.305      Charge balance
                                       pe  =   4.000      Adjusted to redox equilibrium
       Specific Conductance (uS/cm, 25 oC) = 456903
                          Density (g/cm3)  =   1.21461
                               Volume (L)  =   1.12598
                        Activity of water  =   0.745
                           Ionic strength  =  6.290e+000
                       Mass of water (kg)  =  1.000e+000
                 Total alkalinity (eq/kg)  =  7.510e-010
                    Total carbon (mol/kg)  =  0.000e+000
                       Total CO2 (mol/kg)  =  0.000e+000
                      Temperature (deg C)  =  25.00
                           Pressure (atm)  = 579.37
                  Electrical balance (eq)  = -7.449e-010
 Percent error, 100*(Cat-|An|)/(Cat+|An|)  =  -0.00
                               Iterations  =  23
                         Gamma iterations  =   6
                      Osmotic coefficient  =   1.29738
                         Density of water  =   0.99706
                                  Total H  = 1.110124e+002
                                  Total O  = 5.550622e+001

----------------------------Distribution of species----------------------------

                                                    MacInnes  MacInnes
                                MacInnes       Log       Log       Log    mole V
   Species          Molality    Activity  Molality  Activity     Gamma   cm3/mol

   OH-            6.110e-008  2.005e-008    -7.214    -7.698    -0.484      5.77
   H+             6.035e-008  4.956e-007    -7.219    -6.305     0.914      0.00
   H2O            5.551e+001  7.452e-001     1.744    -0.128     0.000     17.63
Cl           6.290e+000
   Cl-            6.290e+000  3.879e+000     0.799     0.589    -0.210     20.19
Na           6.290e+000
   Na+            6.290e+000  1.071e+001     0.799     1.030     0.231      3.26

------------------------------Saturation indices-------------------------------

	Phase               SI   log IAP   log K(298 K, 579 atm)

	H2O(g)           -1.45     -0.13    1.32  H2O
	Halite            0.00      1.62    1.62  NaCl


Reaction step 13.

Using solution 1.	
Using pure phase assemblage 1.	
Using pressure 1.	

-------------------------------Phase assemblage--------------------------------

                                                      Moles in assemblage
Phase               SI  log IAP  log K(T, P)   Initial       Final       Delta

Halite           -0.00     1.62      1.62   1.000e+001  3.703e+000 -6.297e+000

-----------------------------Solution composition------------------------------

	Elements           Molality       Moles

	Cl               6.297e+000  6.297e+000
	Na               6.297e+000  6.297e+000

----------------------------Description of solution----------------------------

                                       pH  =   6.300      Charge balance
                                       pe  =   4.000      Adjusted to redox equilibrium
       Specific Conductance (uS/cm, 25 oC) = 457406
                          Density (g/cm3)  =   1.21606
                               Volume (L)  =   1.12497
                        Activity of water  =   0.745
                           Ionic strength  =  6.297e+000
                       Mass of water (kg)  =  1.000e+000
                 Total alkalinity (eq/kg)  =  7.510e-010
                    Total carbon (mol/kg)  =  0.000e+000
                       Total CO2 (mol/kg)  =  0.000e+000
                      Temperature (deg C)  =  25.00
                           Pressure (atm)  = 631.95
                  Electrical balance (eq)  = -7.510e-010
 Percent error, 100*(Cat-|An|)/(Cat+|An|)  =  -0.00
                               Iterations  =  19
                         Gamma iterations  =   6
                      Osmotic coefficient  =   1.29797
                         Density of water  =   0.99706
                                  Total H  = 1.110124e+002
                                  Total O  = 5.550622e+001

----------------------------Distribution of species----------------------------

                                                    MacInnes  MacInnes
                                MacInnes       Log       Log       Log    mole V
   Species          Molality    Activity  Molality  Activity     Gamma   cm3/mol

   OH-            6.165e-008  2.022e-008    -7.210    -7.694    -0.484      5.90
   H+             6.090e-008  5.017e-007    -7.215    -6.300     0.916      0.00
   H2O            5.551e+001  7.449e-001     1.744    -0.128     0.000     17.59
Cl           6.297e+000
   Cl-            6.297e+000  3.885e+000     0.799     0.589    -0.210     20.20
Na           6.297e+000
   Na+            6.297e+000  1.074e+001     0.799     1.031     0.232      3.39

------------------------------Saturation indices-------------------------------

	Phase               SI   log IAP   log K(298 K, 632 atm)

	H2O(g)           -1.43     -0.13    1.31  H2O
	Halite           -0.00      1.62    1.62  NaCl


Reaction step 14.

Using solution 1.	
Using pure phase assemblage 1.	
Using pressure 1.	

-------------------------------Phase assemblage--------------------------------

                                                      Moles in assemblage
Phase               SI  log IAP  log K(T, P)   Initial       Final       Delta

Halite           -0.00     1.62      1.62   1.000e+001  3.696e+000 -6.304e+000

-----------------------------Solution composition------------------------------

	Elements           Molality       Moles

	Cl               6.304e+000  6.304e+000
	Na               6.304e+000  6.304e+000

----------------------------Description of solution----------------------------

                                       pH  =   6.294      Charge balance
                                       pe  =   4.000      Adjusted to redox equilibrium
       Specific Conductance (uS/cm, 25 oC) = 457851
                          Density (g/cm3)  =   1.21749
                               Volume (L)  =   1.12395
                        Activity of water  =   0.745
                           Ionic strength  =  6.304e+000
                       Mass of water (kg)  =  1.000e+000
                 Total alkalinity (eq/kg)  =  7.510e-010
                    Total carbon (mol/kg)  =  0.000e+000
                       Total CO2 (mol/kg)  =  0.000e+000
                      Temperature (deg C)  =  25.00
                           Pressure (atm)  = 684.53
                  Electrical balance (eq)  = -7.510e-010
 Percent error, 100*(Cat-|An|)/(Cat+|An|)  =  -0.00
                               Iterations  =  19
                         Gamma iterations  =   6
                      Osmotic coefficient  =   1.29850
                         Density of water  =   0.99706
                                  Total H  = 1.110124e+002
                                  Total O  = 5.550622e+001

----------------------------Distribution of species----------------------------

                                                    MacInnes  MacInnes
                                MacInnes       Log       Log       Log    mole V
   Species          Molality    Activity  Molality  Activity     Gamma   cm3/mol

   OH-            6.221e-008  2.039e-008    -7.206    -7.691    -0.484      6.03
   H+             6.145e-008  5.077e-007    -7.211    -6.294     0.917      0.00
   H2O            5.551e+001  7.446e-001     1.744    -0.128     0.000     17.56
Cl           6.304e+000
   Cl-            6.304e+000  3.889e+000     0.800     0.590    -0.210     20.21
Na           6.304e+000
   Na+            6.304e+000  1.076e+001     0.800     1.032     0.232      3.51

------------------------------Saturation indices-------------------------------

	Phase               SI   log IAP   log K(298 K, 685 atm)

	H2O(g)           -1.42     -0.13    1.29  H2O
	Halite           -0.00      1.62    1.62  NaCl


Reaction step 15.

Using solution 1.	
Using pure phase assemblage 1.	
Using pressure 1.	

-------------------------------Phase assemblage--------------------------------

                                                      Moles in assemblage
Phase               SI  log IAP  log K(T, P)   Initial       Final       Delta

Halite           -0.00     1.62      1.62   1.000e+001  3.691e+000 -6.309e+000

-----------------------------Solution composition------------------------------

	Elements           Molality       Moles

	Cl               6.309e+000  6.309e+000
	Na               6.309e+000  6.309e+000

----------------------------Description of solution----------------------------

                                       pH  =   6.290      Charge balance
                                       pe  =   4.000      Adjusted to redox equilibrium
       Specific Conductance (uS/cm, 25 oC) = 458243
                          Density (g/cm3)  =   1.21889
                               Volume (L)  =   1.12292
                        Activity of water  =   0.744
                           Ionic strength  =  6.309e+000
                       Mass of water (kg)  =  1.000e+000
                 Total alkalinity (eq/kg)  =  7.510e-010
                    Total carbon (mol/kg)  =  0.000e+000
                       Total CO2 (mol/kg)  =  0.000e+000
                      Temperature (deg C)  =  25.00
                           Pressure (atm)  = 737.11
                  Electrical balance (eq)  = -7.510e-010
 Percent error, 100*(Cat-|An|)/(Cat+|An|)  =  -0.00
                               Iterations  =  20
                         Gamma iterations  =   6
                      Osmotic coefficient  =   1.29896
                         Density of water  =   0.99706
                                  Total H  = 1.110124e+002
                                  Total O  = 5.550622e+001

----------------------------Distribution of species----------------------------

                                                    MacInnes  MacInnes
                                MacInnes       Log       Log       Log    mole V
   Species          Molality    Activity  Molality  Activity     Gamma   cm3/mol

   OH-            6.275e-008  2.056e-008    -7.202    -7.687    -0.485      6.15
   H+             6.200e-008  5.134e-007    -7.208    -6.290     0.918      0.00
   H2O            5.551e+001  7.443e-001     1.744    -0.128     0.000     17.52
Cl           6.309e+000
   Cl-            6.309e+000  3.893e+000     0.800     0.590    -0.210     20.21
Na           6.309e+000
   Na+            6.309e+000  1.079e+001     0.800     1.033     0.233      3.64

------------------------------Saturation indices-------------------------------

	Phase               SI   log IAP   log K(298 K, 737 atm)

	H2O(g)           -1.40     -0.13    1.27  H2O
	Halite            0.00      1.62    1.62  NaCl


Reaction step 16.

Using solution 1.	
Using pure phase assemblage 1.	
Using pressure 1.	

-------------------------------Phase assemblage--------------------------------

                                                      Moles in assemblage
Phase               SI  log IAP  log K(T, P)   Initial       Final       Delta

Halite           -0.00     1.62      1.63   1.000e+001  3.686e+000 -6.314e+000

-----------------------------Solution composition------------------------------

	Elements           Molality       Moles

	Cl               6.314e+000  6.314e+000
	Na               6.314e+000  6.314e+000

----------------------------Description of solution----------------------------

                                       pH  =   6.285      Charge balance
                                       pe  =   4.000      Adjusted to redox equilibrium
       Specific Conductance (uS/cm, 25 oC) = 458585
                          Density (g/cm3)  =   1.22029
                               Volume (L)  =   1.12186
                        Activity of water  =   0.744
                           Ionic strength  =  6.314e+000
                       Mass of water (kg)  =  1.000e+000
                 Total alkalinity (eq/kg)  =  7.510e-010
                    Total carbon (mol/kg)  =  0.000e+000
                       Total CO2 (mol/kg)  =  0.000e+000
                      Temperature (deg C)  =  25.00
                           Pressure (atm)  = 789.68
                  Electrical balance (eq)  = -7.510e-010
 Percent error, 100*(Cat-|An|)/(Cat+|An|)  =  -0.00
                               Iterations  =  21
                         Gamma iterations  =   6
                      Osmotic coefficient  =   1.29936
                         Density of water  =   0.99706
                                  Total H  = 1.110124e+002
                                  Total O  = 5.550622e+001

----------------------------Distribution of species----------------------------

                                                    MacInnes  MacInnes
                                MacInnes       Log       Log       Log    mole V
   Species          Molality    Activity  Molality  Activity     Gamma   cm3/mol

   OH-            6.330e-008  2.073e-008    -7.199    -7.683    -0.485      6.27
   H+             6.255e-008  5.191e-007    -7.204    -6.285     0.919      0.00
   H2O            5.551e+001  7.441e-001     1.744    -0.128     0.000     17.48
Cl           6.314e+000
   Cl-            6.314e+000  3.897e+000     0.800     0.591    -0.210     20.22
Na           6.314e+000
   Na+            6.314e+000  1.081e+001     0.800     1.034     0.233      3.75

------------------------------Saturation indices-------------------------------

	Phase               SI   log IAP   log K(298 K, 790 atm)

	H2O(g)           -1.39     -0.13    1.26  H2O
	Halite            0.00      1.62    1.62  NaCl


Reaction step 17.

Using solution 1.	
Using pure phase assemblage 1.	
Using pressure 1.	

-------------------------------Phase assemblage--------------------------------

                                                      Moles in assemblage
Phase               SI  log IAP  log K(T, P)   Initial       Final       Delta

Halite           -0.00     1.63      1.63   1.000e+001  3.682e+000 -6.318e+000

-----------------------------Solution composition------------------------------

	Elements           Molality       Moles

	Cl               6.318e+000  6.318e+000
	Na               6.318e+000  6.318e+000

----------------------------Description of solution----------------------------

                                       pH  =   6.280      Charge balance
                                       pe  =   4.000      Adjusted to redox equilibrium
       Specific Conductance (uS/cm, 25 oC) = 458880
                          Density (g/cm3)  =   1.22167
                               Volume (L)  =   1.12079
                        Activity of water  =   0.744
                           Ionic strength  =  6.318e+000
                       Mass of water (kg)  =  1.000e+000
                 Total alkalinity (eq/kg)  =  7.510e-010
                    Total carbon (mol/kg)  =  0.000e+000
                       Total CO2 (mol/kg)  =  0.000e+000
                      Temperature (deg C)  =  25.00
                           Pressure (atm)  = 842.26
                  Electrical balance (eq)  = -7.510e-010
 Percent error, 100*(Cat-|An|)/(Cat+|An|)  =  -0.00
                               Iterations  =  21
                         Gamma iterations  =   6
                      Osmotic coefficient  =   1.29971
                         Density of water  =   0.99706
                                  Total H  = 1.110124e+002
                                  Total O  = 5.550622e+001

----------------------------Distribution of species----------------------------

                                                    MacInnes  MacInnes
                                MacInnes       Log       Log       Log    mole V
   Species          Molality    Activity  Molality  Activity     Gamma   cm3/mol

   OH-            6.385e-008  2.091e-008    -7.195    -7.680    -0.485      6.38
   H+             6.310e-008  5.246e-007    -7.200    -6.280     0.920      0.00
   H2O            5.551e+001  7.439e-001     1.744    -0.128     0.000     17.45
Cl           6.318e+000
   Cl-            6.318e+000  3.900e+000     0.801     0.591    -0.209     20.23
Na           6.318e+000
   Na+            6.318e+000  1.082e+001     0.801     1.034     0.234      3.87

------------------------------Saturation indices-------------------------------

	Phase               SI   log IAP   log K(298 K, 842 atm)

	H2O(g)           -1.37     -0.13    1.24  H2O
	Halite            0.00      1.63    1.63  NaCl


Reaction step 18.

Using solution 1.	
Using pure phase assemblage 1.	
Using pressure 1.	

-------------------------------Phase assemblage--------------------------------

                                                      Moles in assemblage
Phase               SI  log IAP  log K(T, P)   Initial       Final       Delta

Halite           -0.00     1.63      1.63   1.000e+001  3.679e+000 -6.321e+000

-----------------------------Solution composition------------------------------

	Elements           Molality       Moles

	Cl               6.321e+000  6.321e+000
	Na               6.321e+000  6.321e+000

----------------------------Description of solution----------------------------

                                       pH  =   6.276      Charge balance
                                       pe  =   4.000      Adjusted to redox equilibrium
       Specific Conductance (uS/cm, 25 oC) = 459133
                          Density (g/cm3)  =   1.22304
                               Volume (L)  =   1.11970
                        Activity of water  =   0.744
                           Ionic strength  =  6.321e+000
                       Mass of water (kg)  =  1.000e+000
                 Total alkalinity (eq/kg)  =  7.510e-010
                    Total carbon (mol/kg)  =  0.000e+000
                       Total CO2 (mol/kg)  =  0.000e+000
                      Temperature (deg C)  =  25.00
                           Pressure (atm)  = 894.84
                  Electrical balance (eq)  = -7.510e-010
 Percent error, 100*(Cat-|An|)/(Cat+|An|)  =  -0.00
                               Iterations  =  21
                         Gamma iterations  =   6
                      Osmotic coefficient  =   1.30001
                         Density of water  =   0.99706
                                  Total H  = 1.110124e+002
                                  Total O  = 5.550622e+001

----------------------------Distribution of species----------------------------

                                                    MacInnes  MacInnes
                                MacInnes       Log       Log       Log    mole V
   Species          Molality    Activity  Molality  Activity     Gamma   cm3/mol

   OH-            6.439e-008  2.108e-008    -7.191    -7.676    -0.485      6.49
   H+             6.364e-008  5.299e-007    -7.196    -6.276     0.920      0.00
   H2O            5.551e+001  7.437e-001     1.744    -0.129     0.000     17.42
Cl           6.321e+000
   Cl-            6.321e+000  3.903e+000     0.801     0.591    -0.209     20.23
Na           6.321e+000
   Na+            6.321e+000  1.084e+001     0.801     1.035     0.234      3.98

------------------------------Saturation indices-------------------------------

	Phase               SI   log IAP   log K(298 K, 895 atm)

	H2O(g)           -1.36     -0.13    1.23  H2O
	Halite            0.00      1.63    1.63  NaCl


Reaction step 19.

Using solution 1.	
Using pure phase assemblage 1.	
Using pressure 1.	

-------------------------------Phase assemblage--------------------------------

                                                      Moles in assemblage
Phase               SI  log IAP  log K(T, P)   Initial       Final       Delta

Halite           -0.00     1.63      1.63   1.000e+001  3.676e+000 -6.324e+000

-----------------------------Solution composition------------------------------

	Elements           Molality       Moles

	Cl               6.324e+000  6.324e+000
	Na               6.324e+000  6.324e+000

----------------------------Description of solution----------------------------

                                       pH  =   6.272      Charge balance
                                       pe  =   4.000      Adjusted to redox equilibrium
       Specific Conductance (uS/cm, 25 oC) = 459345
                          Density (g/cm3)  =   1.22441
                               Volume (L)  =   1.11859
                        Activity of water  =   0.744
                           Ionic strength  =  6.324e+000
                       Mass of water (kg)  =  1.000e+000
                 Total alkalinity (eq/kg)  =  7.510e-010
                    Total carbon (mol/kg)  =  0.000e+000
                       Total CO2 (mol/kg)  =  0.000e+000
                      Temperature (deg C)  =  25.00
                           Pressure (atm)  = 947.42
                  Electrical balance (eq)  = -7.510e-010
 Percent error, 100*(Cat-|An|)/(Cat+|An|)  =  -0.00
                               Iterations  =  21
                         Gamma iterations  =   6
                      Osmotic coefficient  =   1.30026
                         Density of water  =   0.99706
                                  Total H  = 1.110124e+002
                                  Total O  = 5.550622e+001

----------------------------Distribution of species----------------------------

                                                    MacInnes  MacInnes
                                MacInnes       Log       Log       Log    mole V
   Species          Molality    Activity  Molality  Activity     Gamma   cm3/mol

   OH-            6.493e-008  2.125e-008    -7.188    -7.673    -0.485      6.59
   H+             6.418e-008  5.351e-007    -7.193    -6.272     0.921      0.00
   H2O            5.551e+001  7.436e-001     1.744    -0.129     0.000     17.38
Cl           6.324e+000
   Cl-            6.324e+000  3.905e+000     0.801     0.592    -0.209     20.24
Na           6.324e+000
   Na+            6.324e+000  1.085e+001     0.801     1.035     0.234      4.08

------------------------------Saturation indices-------------------------------

	Phase               SI   log IAP   log K(298 K, 947 atm)

	H2O(g)           -1.34     -0.13    1.21  H2O
	Halite           -0.00      1.63    1.63  NaCl


Reaction step 20.

Using solution 1.	
Using pure phase assemblage 1.	
Using pressure 1.	

-------------------------------Phase assemblage--------------------------------

                                                      Moles in assemblage
Phase               SI  log IAP  log K(T, P)   Initial       Final       Delta

Halite           -0.00     1.63      1.63   1.000e+001  3.673e+000 -6.327e+000

-----------------------------Solution composition------------------------------

	Elements           Molality       Moles

	Cl               6.327e+000  6.327e+000
	Na               6.327e+000  6.327e+000

----------------------------Description of solution----------------------------

                                       pH  =   6.267      Charge balance
                                       pe  =   4.000      Adjusted to redox equilibrium
       Specific Conductance (uS/cm, 25 oC) = 459520
                          Density (g/cm3)  =   1.22578
                               Volume (L)  =   1.11746
                        Activity of water  =   0.743
                           Ionic strength  =  6.327e+000
                       Mass of water (kg)  =  1.000e+000
                 Total alkalinity (eq/kg)  =  7.510e-010
                    Total carbon (mol/kg)  =  0.000e+000
                       Total CO2 (mol/kg)  =  0.000e+000
                      Temperature (deg C)  =  25.00
                           Pressure (atm)  = 1000.00
                  Electrical balance (eq)  = -7.510e-010
 Percent error, 100*(Cat-|An|)/(Cat+|An|)  =  -0.00
                               Iterations  =  22
                         Gamma iterations  =   6
                      Osmotic coefficient  =   1.30047
                         Density of water  =   0.99706
                                  Total H  = 1.110124e+002
                                  Total O  = 5.550622e+001

----------------------------Distribution of species----------------------------

                                                    MacInnes  MacInnes
                                MacInnes       Log       Log       Log    mole V
   Species          Molality    Activity  Molality  Activity     Gamma   cm3/mol

   OH-            6.548e-008  2.142e-008    -7.184    -7.669    -0.485      6.69
   H+             6.472e-008  5.402e-007    -7.189    -6.267     0.922      0.00
   H2O            5.551e+001  7.435e-001     1.744    -0.129     0.000     17.35
Cl           6.327e+000
   Cl-            6.327e+000  3.907e+000     0.801     0.592    -0.209     20.24
Na           6.327e+000
   Na+            6.327e+000  1.086e+001     0.801     1.036     0.235      4.18

------------------------------Saturation indices-------------------------------

	Phase               SI   log IAP   log K(298 K, 1000 atm)

	H2O(g)           -1.32     -0.13    1.20  H2O
	Halite            0.00      1.63    1.63  NaCl


------------------
End of simulation.
------------------

------------------------------------
Reading input data for simulation 2.
------------------------------------

-------------------------------
End of Run after 0.058 Seconds.
-------------------------------

