   Input file: ppdump
  Output file: ppdump.out
Database file: ../database/phreeqc.dat

------------------
Reading data base.
------------------

	SOLUTION_MASTER_SPECIES
	SOLUTION_SPECIES
	PHASES
	EXCHANGE_MASTER_SPECIES
	EXCHANGE_SPECIES
	SURFACE_MASTER_SPECIES
	SURFACE_SPECIES
	RATES
	END
------------------------------------
Reading input data for simulation 1.
------------------------------------

	DATABASE ../database/phreeqc.dat
	SOLUTION 1-3
		Na	1
		Cl	1
	END
-------------------------------------------
Beginning of initial solution calculations.
-------------------------------------------

Initial solution 1.	

-----------------------------Solution composition------------------------------

	Elements           Molality       Moles

	Cl               1.000e-003  1.000e-003
	Na               1.000e-003  1.000e-003

----------------------------Description of solution----------------------------

                                       pH  =   7.000    
                                       pe  =   4.000    
       Specific Conductance (uS/cm, 25 oC) = 123
                          Density (g/cm3)  =   0.99708
                               Volume (L)  =   1.00298
                        Activity of water  =   1.000
                           Ionic strength  =  1.000e-003
                       Mass of water (kg)  =  1.000e+000
                 Total alkalinity (eq/kg)  =  1.451e-009
                    Total carbon (mol/kg)  =  0.000e+000
                       Total CO2 (mol/kg)  =  0.000e+000
                      Temperature (deg C)  =  25.00
                  Electrical balance (eq)  = -1.451e-009
 Percent error, 100*(Cat-|An|)/(Cat+|An|)  =  -0.00
                               Iterations  =   3
                                  Total H  = 1.110124e+002
                                  Total O  = 5.550622e+001

----------------------------Distribution of species----------------------------

                                               Log       Log       Log    mole V
   Species          Molality    Activity  Molality  Activity     Gamma   cm3/mol

   OH-            1.049e-007  1.012e-007    -6.979    -6.995    -0.016     -4.11
   H+             1.035e-007  1.000e-007    -6.985    -7.000    -0.015      0.00
   H2O            5.551e+001  1.000e+000     1.744    -0.000     0.000     18.07
Cl           1.000e-003
   Cl-            1.000e-003  9.649e-004    -3.000    -3.016    -0.016     18.07
H(0)         1.416e-025
   H2             7.078e-026  7.079e-026   -25.150   -25.150     0.000     28.61
Na           1.000e-003
   Na+            1.000e-003  9.652e-004    -3.000    -3.015    -0.015     -1.39
   NaOH           9.767e-021  9.769e-021   -20.010   -20.010     0.000     (0)  
O(0)         0.000e+000
   O2             0.000e+000  0.000e+000   -42.080   -42.080     0.000     30.40

------------------------------Saturation indices-------------------------------

	Phase               SI   log IAP   log K(298 K,   1 atm)

	H2(g)           -22.05    -25.15   -3.10  H2
	H2O(g)           -1.50     -0.00    1.50  H2O
	Halite           -7.60     -6.03    1.57  NaCl
	O2(g)           -39.19    -42.08   -2.89  O2


------------------
End of simulation.
------------------

------------------------------------
Reading input data for simulation 2.
------------------------------------

	EQUILIBRIUM_PHASES 1-3
		Barite	0	10
	END
------------------
End of simulation.
------------------

------------------------------------
Reading input data for simulation 3.
------------------------------------

	EXCHANGE 1-3
		X	1
		equilibrate	solution 1
	END
-------------------------------------------------------
Beginning of initial exchange-composition calculations.
-------------------------------------------------------

Exchange 1.	

X               1.000e+000 mol

	                               Equiv-    Equivalent      Log 
	Species             Moles      alents      Fraction     Gamma

	NaX              1.000e+000  1.000e+000  1.000e+000    -0.015

------------------
End of simulation.
------------------

------------------------------------
Reading input data for simulation 4.
------------------------------------

	SURFACE 1-3
	    equilibrate with solution 1
	    Hfo_s   0.01   600    1
	END
------------------------------------------------------
Beginning of initial surface-composition calculations.
------------------------------------------------------

Surface 1.	

Hfo           
	 3.783e-005  Surface charge, eq
	 6.083e-003  sigma, C/m**2
	 6.524e-002  psi, V
	-2.540e+000  -F*psi/RT
	 7.890e-002  exp(-F*psi/RT)
	 6.000e+002  specific area, m**2/g
	 6.000e+002  m**2 for  1.000e+000 g


Hfo_s         
	 1.000e-002  moles
	                                   Mole                     Log
	Species               Moles    Fraction    Molality    Molality

	Hfo_sOH          7.676e-003       0.768  7.676e-003      -2.115
	Hfo_sOH2+        1.181e-003       0.118  1.181e-003      -2.928
	Hfo_sO-          1.143e-003       0.114  1.143e-003      -2.942

------------------
End of simulation.
------------------

------------------------------------
Reading input data for simulation 5.
------------------------------------

	GAS_PHASE 1-3
	    fixed_pressure
	    pressure 1
	    volume 1
	    temperature 25
	    CO2(g)    0.00035
	END
------------------
End of simulation.
------------------

------------------------------------
Reading input data for simulation 6.
------------------------------------

	SOLID_SOLUTIONS 1-3
	    Calcite
	        component calcite 0.1
	        component siderite 0.001
	END
------------------
End of simulation.
------------------

------------------------------------
Reading input data for simulation 7.
------------------------------------

	KINETICS 1-3
	Calcite
	    formula  CaCO3  1
	    m        1
	    m0       1
	    parms    1 1 1 1
	    tol      1e-008
	steps       1 in 1 steps # seconds
	step_divide 1
	runge_kutta 3
	bad_step_max 500
	END
------------------
End of simulation.
------------------

------------------------------------
Reading input data for simulation 8.
------------------------------------

	DUMP
		-file	ppdump.dmp
		-solution 1	 	
			2
			3
		-equilibrium_phases	1-3
		-exchange		1
			2-3
		-surface
			1-3
		-solid_solution 1
			2 3
		-gas_phase	1
		-gas_phase      2-3
		-kinetics	1
		-kinetics	2
		-kinetics       3
	END
------------------
End of simulation.
------------------

------------------------------------
Reading input data for simulation 9.
------------------------------------

	REACTION 1-3
		NaCl  1
		0.001
	END	
------------------
End of simulation.
------------------

-------------------------------------
Reading input data for simulation 10.
-------------------------------------

	MIX 1
		1 0.5
	MIX 2   
		2 0.5
		3 0.5
	MIX 3
		3 0.5
		2 0.5
	USE mix none
	END
------------------
End of simulation.
------------------

-------------------------------------
Reading input data for simulation 11.
-------------------------------------

	REACTION_TEMPERATURE 1-3
		30
	END
------------------
End of simulation.
------------------

-------------------------------------
Reading input data for simulation 12.
-------------------------------------

	REACTION_PRESSURE 1-3
		100 200 300
	END
------------------
End of simulation.
------------------

-------------------------------------
Reading input data for simulation 13.
-------------------------------------

	DELETE 
		-mix 2
	END
------------------
End of simulation.
------------------

-------------------------------------
Reading input data for simulation 14.
-------------------------------------

	RUN_CELLS 
		-cells 2-3
		-time_step   10000
		-start_time  100
	END
--------------------------
Beginning of run as cells.
--------------------------

-----------------------------------------
Beginning of batch-reaction calculations.
-----------------------------------------

Reaction step 1.

Using solution 2.	
Using exchange 2.	Exchange assemblage after simulation 3.
Using surface 2.	
Using pure phase assemblage 2.	
Using solid solution assemblage 2.	
Using gas phase 2.	
Using temperature 2.	
Using pressure 2.	
Using reaction 2.	
Using kinetics 2.	

Reaction 2.	

	 1.000e-003 moles of the following reaction have been added:

	                 Relative
	Reactant            moles

	NaCl                 1.00000

	                 Relative
	Element             moles
	Cl                   1.00000
	Na                   1.00000

Kinetics 2.	

	Time step: 3333.33 seconds

	Rate name       Delta Moles Total Moles   Reactant        Coefficient

	Calcite         -2.800e-007  1.000e+000   CaCO3                     1

----------------Fixed-pressure gas phase 2 dissolved completely----------------

-------------------------------Phase assemblage--------------------------------

                                                      Moles in assemblage
Phase               SI  log IAP  log K(T, P)   Initial       Final       Delta

Barite            0.08    -9.81     -9.90   1.000e+001  9.998e+000 -2.326e-003

--------------------------------Solid solutions--------------------------------


Solid solution                Component        Moles  Delta moles   Mole fract

Calcite                                    8.81e-002
                                calcite    8.74e-002   -1.26e-002    9.91e-001
                               siderite    7.49e-004   -2.51e-004    8.50e-003

------------------------------Surface composition------------------------------

Hfo           
	-8.973e-005  Surface charge, eq
	-1.443e-002  sigma, C/m**2
	-3.260e-002  psi, V
	 1.248e+000  -F*psi/RT
	 3.484e+000  exp(-F*psi/RT)
	 6.000e+002  specific area, m**2/g
	 6.000e+002  m**2 for  1.000e+000 g


Hfo_s         
	 1.000e-002  moles
	                                   Mole                     Log
	Species               Moles    Fraction    Molality    Molality

	Hfo_sO-          5.635e-003       0.563  5.635e-003      -2.249
	Hfo_sOHCa+2      1.936e-003       0.194  1.936e-003      -2.713
	Hfo_sOH          1.463e-003       0.146  1.463e-003      -2.835
	Hfo_sOHBa+2      7.075e-004       0.071  7.075e-004      -3.150
	Hfo_sOFe+        2.504e-004       0.025  2.504e-004      -3.601
	Hfo_sOH2+        8.700e-006       0.001  8.700e-006      -5.060

-----------------------------Exchange composition------------------------------

X               1.000e+000 mol

	                               Equiv-    Equivalent      Log 
	Species             Moles      alents      Fraction     Gamma

	NaX              9.754e-001  9.754e-001  9.754e-001    -0.073
	CaX2             1.067e-002  2.134e-002  2.134e-002    -0.285
	BaX2             1.618e-003  3.235e-003  3.235e-003    -0.290
	FeX2             1.432e-007  2.865e-007  2.865e-007    -0.277

-----------------------------Solution composition------------------------------

	Elements           Molality       Moles

	Ba               6.156e-007  6.156e-007
	C                1.288e-002  1.288e-002
	Ca               9.547e-006  9.547e-006
	Cl               2.000e-003  2.000e-003
	Fe               3.429e-009  3.429e-009
	Na               2.657e-002  2.657e-002
	S                2.326e-003  2.326e-003

----------------------------Description of solution----------------------------

                                       pH  =  10.058      Charge balance
                                       pe  =  -6.149      Adjusted to redox equilibrium
       Specific Conductance (uS/cm, 30 oC) = 2845
                          Density (g/cm3)  =   1.00151
                               Volume (L)  =   1.00095
                        Activity of water  =   0.999
                           Ionic strength  =  3.423e-002
                       Mass of water (kg)  =  1.000e+000
                 Total alkalinity (eq/kg)  =  1.981e-002
                       Total CO2 (mol/kg)  =  1.288e-002
                      Temperature (deg C)  =  30.00
                           Pressure (atm)  = 100.00
                  Electrical balance (eq)  =  1.276e-004
 Percent error, 100*(Cat-|An|)/(Cat+|An|)  =   0.25
                               Iterations  =  39
                                  Total H  = 1.110183e+002
                                  Total O  = 5.555414e+001

----------------------------Distribution of species----------------------------

                                               Log       Log       Log    mole V
   Species          Molality    Activity  Molality  Activity     Gamma   cm3/mol

   OH-            2.185e-004  1.826e-004    -3.661    -3.739    -0.078     -3.53
   H+             1.008e-010  8.755e-011    -9.997   -10.058    -0.061      0.00
   H2O            5.551e+001  9.993e-001     1.744    -0.000     0.000     18.02
Ba           6.156e-007
   Ba+2           2.753e-007  1.382e-007    -6.560    -6.860    -0.299    -11.23
   BaCO3          2.534e-007  2.554e-007    -6.596    -6.593     0.003    -10.04
   BaSO4          7.649e-008  7.710e-008    -7.116    -7.113     0.003     (0)  
   BaHCO3+        1.027e-008  8.649e-009    -7.988    -8.063    -0.075     (0)  
   BaOH+          6.316e-011  5.344e-011   -10.200   -10.272    -0.073     (0)  
C(-4)        2.015e-014
   CH4            2.015e-014  2.031e-014   -13.696   -13.692     0.003     32.22
C(4)         1.288e-002
   CO3-2          6.332e-003  3.284e-003    -2.198    -2.484    -0.285     -2.49
   HCO3-          5.886e-003  4.995e-003    -2.230    -2.301    -0.071     25.30
   NaCO3-         3.780e-004  3.208e-004    -3.422    -3.494    -0.071      0.79
   NaHCO3         2.738e-004  2.760e-004    -3.563    -3.559     0.003     19.41
   CaCO3          6.973e-006  7.028e-006    -5.157    -5.153     0.003    -13.89
   CO2            8.464e-007  8.531e-007    -6.072    -6.069     0.003     29.43
   BaCO3          2.534e-007  2.554e-007    -6.596    -6.593     0.003    -10.04
   CaHCO3+        9.285e-008  7.914e-008    -7.032    -7.102    -0.069     10.19
   BaHCO3+        1.027e-008  8.649e-009    -7.988    -8.063    -0.075     (0)  
   FeCO3          2.997e-009  3.020e-009    -8.523    -8.520     0.003     (0)  
   FeHCO3+        2.540e-011  2.139e-011   -10.595   -10.670    -0.075     (0)  
Ca           9.547e-006
   CaCO3          6.973e-006  7.028e-006    -5.157    -5.153     0.003    -13.89
   Ca+2           2.251e-006  1.168e-006    -5.648    -5.933    -0.285    -16.96
   CaSO4          2.287e-007  2.305e-007    -6.641    -6.637     0.003      7.95
   CaHCO3+        9.285e-008  7.914e-008    -7.032    -7.102    -0.069     10.19
   CaOH+          2.628e-009  2.213e-009    -8.580    -8.655    -0.075     (0)  
   CaHSO4+        1.767e-016  1.488e-016   -15.753   -15.828    -0.075     (0)  
Cl           2.000e-003
   Cl-            2.000e-003  1.675e-003    -2.699    -2.776    -0.077     18.38
   FeCl+          1.053e-013  8.865e-014   -12.978   -13.052    -0.075     (0)  
   FeCl+2         3.929e-031  2.013e-031   -30.406   -30.696    -0.290     (0)  
   FeCl2+         1.523e-033  1.289e-033   -32.817   -32.890    -0.073     (0)  
   FeCl3          2.142e-037  2.159e-037   -36.669   -36.666     0.003     (0)  
Fe(2)        3.384e-009
   FeCO3          2.997e-009  3.020e-009    -8.523    -8.520     0.003     (0)  
   FeOH+          2.362e-010  1.998e-010    -9.627    -9.699    -0.073     (0)  
   Fe+2           7.263e-011  3.834e-011   -10.139   -10.416    -0.277    -20.64
   Fe(OH)2        2.954e-011  2.977e-011   -10.530   -10.526     0.003     (0)  
   FeHCO3+        2.540e-011  2.139e-011   -10.595   -10.670    -0.075     (0)  
   Fe(OH)3-       1.566e-011  1.325e-011   -10.805   -10.878    -0.073     (0)  
   FeSO4          8.239e-012  8.304e-012   -11.084   -11.081     0.003     (0)  
   FeCl+          1.053e-013  8.865e-014   -12.978   -13.052    -0.075     (0)  
   FeHSO4+        5.798e-021  4.882e-021   -20.237   -20.311    -0.075     (0)  
   Fe(HS)2        6.437e-025  6.488e-025   -24.191   -24.188     0.003     (0)  
   Fe(HS)3-       3.656e-034  3.079e-034   -33.437   -33.512    -0.075     (0)  
Fe(3)        4.433e-011
   Fe(OH)4-       4.157e-011  3.527e-011   -10.381   -10.453    -0.071     (0)  
   Fe(OH)3        2.759e-012  2.781e-012   -11.559   -11.556     0.003     (0)  
   Fe(OH)2+       1.799e-015  1.527e-015   -14.745   -14.816    -0.071     (0)  
   FeOH+2         6.542e-022  3.352e-022   -21.184   -21.475    -0.290     (0)  
   FeSO4+         5.478e-029  4.635e-029   -28.261   -28.334    -0.073     (0)  
   Fe+3           1.210e-029  3.405e-030   -28.917   -29.468    -0.551     (0)  
   Fe(SO4)2-      1.367e-030  1.151e-030   -29.864   -29.939    -0.075     (0)  
   FeCl+2         3.929e-031  2.013e-031   -30.406   -30.696    -0.290     (0)  
   FeCl2+         1.523e-033  1.289e-033   -32.817   -32.890    -0.073     (0)  
   FeCl3          2.142e-037  2.159e-037   -36.669   -36.666     0.003     (0)  
   FeHSO4+2       2.167e-038  1.089e-038   -37.664   -37.963    -0.299     (0)  
   Fe2(OH)2+4     0.000e+000  0.000e+000   -40.413   -41.608    -1.195     (0)  
   Fe3(OH)4+5     0.000e+000  0.000e+000   -52.434   -54.301    -1.867     (0)  
H(0)         1.814e-011
   H2             9.068e-012  9.139e-012   -11.043   -11.039     0.003     28.55
Na           2.657e-002
   Na+            2.577e-002  2.178e-002    -1.589    -1.662    -0.073     -0.64
   NaCO3-         3.780e-004  3.208e-004    -3.422    -3.494    -0.071      0.79
   NaHCO3         2.738e-004  2.760e-004    -3.563    -3.559     0.003     19.41
   NaSO4-         1.455e-004  1.234e-004    -3.837    -3.909    -0.071     18.11
   NaOH           3.621e-016  3.650e-016   -15.441   -15.438     0.003     (0)  
O(0)         0.000e+000
   O2             0.000e+000  0.000e+000   -68.808   -68.805     0.003     30.61
S(-2)        3.839e-012
   HS-            3.820e-012  3.192e-012   -11.418   -11.496    -0.078     20.98
   S-2            1.643e-014  8.419e-015   -13.784   -14.075    -0.290     (0)  
   H2S            1.971e-015  1.987e-015   -14.705   -14.702     0.003     37.01
   Fe(HS)2        6.437e-025  6.488e-025   -24.191   -24.188     0.003     (0)  
   Fe(HS)3-       3.656e-034  3.079e-034   -33.437   -33.512    -0.075     (0)  
S(6)         2.326e-003
   SO4-2          2.180e-003  1.113e-003    -2.662    -2.953    -0.292     14.79
   NaSO4-         1.455e-004  1.234e-004    -3.837    -3.909    -0.071     18.11
   CaSO4          2.287e-007  2.305e-007    -6.641    -6.637     0.003      7.95
   BaSO4          7.649e-008  7.710e-008    -7.116    -7.113     0.003     (0)  
   HSO4-          1.136e-011  9.562e-012   -10.945   -11.019    -0.075     40.49
   FeSO4          8.239e-012  8.304e-012   -11.084   -11.081     0.003     (0)  
   CaHSO4+        1.767e-016  1.488e-016   -15.753   -15.828    -0.075     (0)  
   FeHSO4+        5.798e-021  4.882e-021   -20.237   -20.311    -0.075     (0)  
   FeSO4+         5.478e-029  4.635e-029   -28.261   -28.334    -0.073     (0)  
   Fe(SO4)2-      1.367e-030  1.151e-030   -29.864   -29.939    -0.075     (0)  
   FeHSO4+2       2.167e-038  1.089e-038   -37.664   -37.963    -0.299     (0)  

------------------------------Saturation indices-------------------------------

	Phase               SI   log IAP   log K(303 K, 100 atm)

	Anhydrite        -4.64     -8.89   -4.25  CaSO4
	Aragonite        -0.14     -8.42   -8.28  CaCO3
	Barite            0.00     -9.81   -9.81  BaSO4
	Calcite          -0.00     -8.42   -8.41  CaCO3
	CH4(g)          -10.91    -13.69   -2.78  CH4
	CO2(g)           -4.59     -6.07   -1.48  CO2
	Fe(OH)3(a)       -4.13      0.70    4.83  Fe(OH)3
	FeS(ppt)         -8.07    -11.85   -3.78  FeS
	Goethite          1.91      0.70   -1.20  FeOOH
	Gypsum           -4.37     -8.89   -4.51  CaSO4:2H2O
	H2(g)            -7.93    -11.04   -3.11  H2
	H2O(g)           -1.35     -0.00    1.35  H2O
	H2S(g)          -13.67    -21.55   -7.88  H2S
	Halite           -6.03     -4.44    1.59  NaCl
	Hematite          5.81      1.41   -4.40  Fe2O3
	Mackinawite      -7.34    -11.85   -4.51  FeS
	Melanterite     -11.01    -13.37   -2.36  FeSO4:7H2O
	O2(g)           -65.82    -68.80   -2.99  O2
	Pyrite           -7.48    -25.59  -18.11  FeS2
	Siderite         -2.07    -12.90  -10.83  FeCO3
	Sulfur          -11.75     -6.88    4.87  S
	Witherite        -0.89     -9.34   -8.45  BaCO3


Reaction step 2.

Using solution 2.	
Using exchange 2.	Exchange assemblage after simulation 3.
Using surface 2.	
Using pure phase assemblage 2.	
Using solid solution assemblage 2.	
Using gas phase 2.	
Using temperature 2.	
Using pressure 2.	
Using reaction 2.	
Using kinetics 2.	

Reaction 2.	

	 1.000e-003 moles of the following reaction have been added:

	                 Relative
	Reactant            moles

	NaCl                 1.00000

	                 Relative
	Element             moles
	Cl                   1.00000
	Na                   1.00000

Kinetics 2.	

	Time step: 6666.67 seconds

	Rate name       Delta Moles Total Moles   Reactant        Coefficient

	Calcite         -5.616e-007  1.000e+000   CaCO3                     1

----------------Fixed-pressure gas phase 2 dissolved completely----------------

-------------------------------Phase assemblage--------------------------------

                                                      Moles in assemblage
Phase               SI  log IAP  log K(T, P)   Initial       Final       Delta

Barite           -0.00    -9.73     -9.73   1.000e+001  9.998e+000 -2.440e-003

--------------------------------Solid solutions--------------------------------


Solid solution                Component        Moles  Delta moles   Mole fract

Calcite                                    8.75e-002
                                calcite    8.68e-002   -1.32e-002    9.91e-001
                               siderite    7.46e-004   -2.54e-004    8.53e-003

------------------------------Surface composition------------------------------

Hfo           
	-8.733e-005  Surface charge, eq
	-1.404e-002  sigma, C/m**2
	-3.098e-002  psi, V
	 1.186e+000  -F*psi/RT
	 3.274e+000  exp(-F*psi/RT)
	 6.000e+002  specific area, m**2/g
	 6.000e+002  m**2 for  1.000e+000 g


Hfo_s         
	 1.000e-002  moles
	                                   Mole                     Log
	Species               Moles    Fraction    Molality    Molality

	Hfo_sO-          5.654e-003       0.565  5.654e-003      -2.248
	Hfo_sOHCa+2      1.938e-003       0.194  1.938e-003      -2.713
	Hfo_sOH          1.432e-003       0.143  1.432e-003      -2.844
	Hfo_sOHBa+2      7.147e-004       0.071  7.147e-004      -3.146
	Hfo_sOFe+        2.533e-004       0.025  2.533e-004      -3.596
	Hfo_sOH2+        8.311e-006       0.001  8.311e-006      -5.080

-----------------------------Exchange composition------------------------------

X               1.000e+000 mol

	                               Equiv-    Equivalent      Log 
	Species             Moles      alents      Fraction     Gamma

	NaX              9.740e-001  9.740e-001  9.740e-001    -0.074
	CaX2             1.126e-002  2.252e-002  2.252e-002    -0.289
	BaX2             1.724e-003  3.448e-003  3.448e-003    -0.295
	FeX2             1.490e-007  2.981e-007  2.981e-007    -0.282

-----------------------------Solution composition------------------------------

	Elements           Molality       Moles

	Ba               7.461e-007  7.461e-007
	C                1.348e-002  1.348e-002
	Ca               1.151e-005  1.151e-005
	Cl               2.000e-003  2.000e-003
	Fe               4.140e-009  4.140e-009
	Na               2.797e-002  2.797e-002
	S                2.440e-003  2.440e-003

----------------------------Description of solution----------------------------

                                       pH  =  10.041      Charge balance
                                       pe  =  -6.147      Adjusted to redox equilibrium
       Specific Conductance (uS/cm, 30 oC) = 2986
                          Density (g/cm3)  =   1.00595
                               Volume (L)  =   0.99665
                        Activity of water  =   0.999
                           Ionic strength  =  3.618e-002
                       Mass of water (kg)  =  1.000e+000
                 Total alkalinity (eq/kg)  =  2.099e-002
                       Total CO2 (mol/kg)  =  1.348e-002
                      Temperature (deg C)  =  30.00
                           Pressure (atm)  = 200.00
                  Electrical balance (eq)  =  1.251e-004
 Percent error, 100*(Cat-|An|)/(Cat+|An|)  =   0.23
                               Iterations  =  39
                                  Total H  = 1.110184e+002
                                  Total O  = 5.555639e+001

----------------------------Distribution of species----------------------------

                                               Log       Log       Log    mole V
   Species          Molality    Activity  Molality  Activity     Gamma   cm3/mol

   OH-            2.297e-004  1.912e-004    -3.639    -3.718    -0.079     -3.30
   H+             1.048e-010  9.090e-011    -9.979   -10.041    -0.062      0.00
   H2O            5.551e+001  9.992e-001     1.744    -0.000     0.000     17.94
Ba           7.461e-007
   Ba+2           3.254e-007  1.614e-007    -6.488    -6.792    -0.304    -10.46
   BaCO3          3.147e-007  3.173e-007    -6.502    -6.499     0.004     -9.46
   BaSO4          9.250e-008  9.327e-008    -7.034    -7.030     0.004     (0)  
   BaHCO3+        1.338e-008  1.124e-008    -7.873    -7.949    -0.076     (0)  
   BaOH+          7.127e-011  6.013e-011   -10.147   -10.221    -0.074     (0)  
C(-4)        2.174e-014
   CH4            2.174e-014  2.193e-014   -13.663   -13.659     0.004     32.22
C(4)         1.348e-002
   CO3-2          6.853e-003  3.517e-003    -2.164    -2.454    -0.290     -1.73
   HCO3-          5.899e-003  4.993e-003    -2.229    -2.302    -0.072     25.41
   NaCO3-         4.201e-004  3.556e-004    -3.377    -3.449    -0.072      1.54
   NaHCO3         2.940e-004  2.965e-004    -3.532    -3.528     0.004     19.41
   CaCO3          8.504e-006  8.575e-006    -5.070    -5.067     0.004    -13.24
   CO2            8.021e-007  8.088e-007    -6.096    -6.092     0.004     29.81
   BaCO3          3.147e-007  3.173e-007    -6.502    -6.499     0.004     -9.46
   CaHCO3+        1.074e-007  9.132e-008    -6.969    -7.039    -0.070     10.41
   BaHCO3+        1.338e-008  1.124e-008    -7.873    -7.949    -0.076     (0)  
   FeCO3          3.663e-009  3.693e-009    -8.436    -8.433     0.004     (0)  
   FeHCO3+        3.234e-011  2.716e-011   -10.490   -10.566    -0.076     (0)  
Ca           1.151e-005
   CaCO3          8.504e-006  8.575e-006    -5.070    -5.067     0.004    -13.24
   Ca+2           2.633e-006  1.353e-006    -5.580    -5.869    -0.289    -16.29
   CaSO4          2.634e-007  2.656e-007    -6.579    -6.576     0.004      8.21
   CaHCO3+        1.074e-007  9.132e-008    -6.969    -7.039    -0.070     10.41
   CaOH+          2.938e-009  2.467e-009    -8.532    -8.608    -0.076     (0)  
   CaHSO4+        2.205e-016  1.852e-016   -15.657   -15.732    -0.076     (0)  
Cl           2.000e-003
   Cl-            2.000e-003  1.670e-003    -2.699    -2.777    -0.078     18.44
   FeCl+          1.202e-013  1.009e-013   -12.920   -12.996    -0.076     (0)  
   FeCl+2         4.533e-031  2.297e-031   -30.344   -30.639    -0.295     (0)  
   FeCl2+         1.738e-033  1.466e-033   -32.760   -32.834    -0.074     (0)  
   FeCl3          2.428e-037  2.448e-037   -36.615   -36.611     0.004     (0)  
Fe(2)        4.097e-009
   FeCO3          3.663e-009  3.693e-009    -8.436    -8.433     0.004     (0)  
   FeOH+          2.604e-010  2.197e-010    -9.584    -9.658    -0.074     (0)  
   Fe+2           8.376e-011  4.378e-011   -10.077   -10.359    -0.282    -19.90
   FeHCO3+        3.234e-011  2.716e-011   -10.490   -10.566    -0.076     (0)  
   Fe(OH)2        3.127e-011  3.153e-011   -10.505   -10.501     0.004     (0)  
   Fe(OH)3-       1.602e-011  1.351e-011   -10.795   -10.869    -0.074     (0)  
   FeSO4          9.736e-012  9.818e-012   -11.012   -11.008     0.004     (0)  
   FeCl+          1.202e-013  1.009e-013   -12.920   -12.996    -0.076     (0)  
   FeHSO4+        7.137e-021  5.993e-021   -20.146   -20.222    -0.076     (0)  
   Fe(HS)2        1.491e-024  1.504e-024   -23.826   -23.823     0.004     (0)  
   Fe(HS)3-       1.211e-033  1.017e-033   -32.917   -32.993    -0.076     (0)  
Fe(3)        4.386e-011
   Fe(OH)4-       4.104e-011  3.474e-011   -10.387   -10.459    -0.072     (0)  
   Fe(OH)3        2.820e-012  2.844e-012   -11.550   -11.546     0.004     (0)  
   Fe(OH)2+       1.915e-015  1.621e-015   -14.718   -14.790    -0.072     (0)  
   FeOH+2         7.292e-022  3.695e-022   -21.137   -21.432    -0.295     (0)  
   FeSO4+         6.510e-029  5.493e-029   -28.186   -28.260    -0.074     (0)  
   Fe+3           1.408e-029  3.898e-030   -28.851   -29.409    -0.558     (0)  
   Fe(SO4)2-      1.682e-030  1.412e-030   -29.774   -29.850    -0.076     (0)  
   FeCl+2         4.533e-031  2.297e-031   -30.344   -30.639    -0.295     (0)  
   FeCl2+         1.738e-033  1.466e-033   -32.760   -32.834    -0.074     (0)  
   FeCl3          2.428e-037  2.448e-037   -36.615   -36.611     0.004     (0)  
   FeHSO4+2       2.696e-038  1.340e-038   -37.569   -37.873    -0.304     (0)  
   Fe2(OH)2+4     0.000e+000  0.000e+000   -40.309   -41.523    -1.214     (0)  
   Fe3(OH)4+5     0.000e+000  0.000e+000   -52.293   -54.190    -1.897     (0)  
H(0)         1.735e-011
   H2             8.673e-012  8.745e-012   -11.062   -11.058     0.004     28.51
Na           2.797e-002
   Na+            2.710e-002  2.284e-002    -1.567    -1.641    -0.074     -0.30
   NaCO3-         4.201e-004  3.556e-004    -3.377    -3.449    -0.072      1.54
   NaHCO3         2.940e-004  2.965e-004    -3.532    -3.528     0.004     19.41
   NaSO4-         1.568e-004  1.327e-004    -3.805    -3.877    -0.072     17.41
   NaOH           3.655e-016  3.686e-016   -15.437   -15.433     0.004     (0)  
O(0)         0.000e+000
   O2             0.000e+000  0.000e+000   -68.860   -68.856     0.004     30.45
S(-2)        4.012e-012
   HS-            3.987e-012  3.320e-012   -11.399   -11.479    -0.079     21.01
   S-2            2.280e-014  1.155e-014   -13.642   -13.937    -0.295     (0)  
   H2S            1.999e-015  2.015e-015   -14.699   -14.696     0.004     36.84
   Fe(HS)2        1.491e-024  1.504e-024   -23.826   -23.823     0.004     (0)  
   Fe(HS)3-       1.211e-033  1.017e-033   -32.917   -32.993    -0.076     (0)  
S(6)         2.440e-003
   SO4-2          2.282e-003  1.153e-003    -2.642    -2.938    -0.297     14.51
   NaSO4-         1.568e-004  1.327e-004    -3.805    -3.877    -0.072     17.41
   CaSO4          2.634e-007  2.656e-007    -6.579    -6.576     0.004      8.21
   BaSO4          9.250e-008  9.327e-008    -7.034    -7.030     0.004     (0)  
   HSO4-          1.104e-011  9.266e-012   -10.957   -11.033    -0.076     40.28
   FeSO4          9.736e-012  9.818e-012   -11.012   -11.008     0.004     (0)  
   CaHSO4+        2.205e-016  1.852e-016   -15.657   -15.732    -0.076     (0)  
   FeHSO4+        7.137e-021  5.993e-021   -20.146   -20.222    -0.076     (0)  
   FeSO4+         6.510e-029  5.493e-029   -28.186   -28.260    -0.074     (0)  
   Fe(SO4)2-      1.682e-030  1.412e-030   -29.774   -29.850    -0.076     (0)  
   FeHSO4+2       2.696e-038  1.340e-038   -37.569   -37.873    -0.304     (0)  

------------------------------Saturation indices-------------------------------

	Phase               SI   log IAP   log K(303 K, 200 atm)

	Anhydrite        -4.64     -8.81   -4.17  CaSO4
	Aragonite        -0.13     -8.32   -8.19  CaCO3
	Barite            0.00     -9.73   -9.73  BaSO4
	Calcite          -0.00     -8.32   -8.32  CaCO3
	CH4(g)          -10.97    -13.66   -2.69  CH4
	CO2(g)           -4.65     -6.09   -1.45  CO2
	Fe(OH)3(a)       -4.06      0.71    4.77  Fe(OH)3
	FeS(ppt)         -8.15    -11.80   -3.65  FeS
	Goethite          1.94      0.71   -1.23  FeOOH
	Gypsum           -4.36     -8.81   -4.45  CaSO4:2H2O
	H2(g)            -7.95    -11.06   -3.11  H2
	H2O(g)           -1.31     -0.00    1.31  H2O
	H2S(g)          -13.74    -21.52   -7.78  H2S
	Halite           -6.03     -4.42    1.61  NaCl
	Hematite          5.86      1.43   -4.43  Fe2O3
	Mackinawite      -7.42    -11.80   -4.38  FeS
	Melanterite     -10.73    -13.30   -2.57  FeSO4:7H2O
	O2(g)           -65.81    -68.86   -3.05  O2
	Pyrite           -7.65    -25.53  -17.88  FeS2
	Siderite         -2.07    -12.81  -10.74  FeCO3
	Sulfur          -11.87     -6.91    4.97  S
	Witherite        -0.89     -9.25   -8.36  BaCO3


Reaction step 3.

Using solution 2.	
Using exchange 2.	Exchange assemblage after simulation 3.
Using surface 2.	
Using pure phase assemblage 2.	
Using solid solution assemblage 2.	
Using gas phase 2.	
Using temperature 2.	
Using pressure 2.	
Using reaction 2.	
Using kinetics 2.	

Reaction 2.	

	 1.000e-003 moles of the following reaction have been added:

	                 Relative
	Reactant            moles

	NaCl                 1.00000

	                 Relative
	Element             moles
	Cl                   1.00000
	Na                   1.00000

Kinetics 2.	

	Time step: 10000 seconds

	Rate name       Delta Moles Total Moles   Reactant        Coefficient

	Calcite         -8.453e-007  1.000e+000   CaCO3                     1

----------------Fixed-pressure gas phase 2 dissolved completely----------------

-------------------------------Phase assemblage--------------------------------

                                                      Moles in assemblage
Phase               SI  log IAP  log K(T, P)   Initial       Final       Delta

Barite           -0.00    -9.65     -9.65   1.000e+001  9.997e+000 -2.560e-003

--------------------------------Solid solutions--------------------------------


Solid solution                Component        Moles  Delta moles   Mole fract

Calcite                                    8.69e-002
                                calcite    8.62e-002   -1.38e-002    9.91e-001
                               siderite    7.44e-004   -2.56e-004    8.56e-003

------------------------------Surface composition------------------------------

Hfo           
	-8.482e-005  Surface charge, eq
	-1.364e-002  sigma, C/m**2
	-2.940e-002  psi, V
	 1.126e+000  -F*psi/RT
	 3.082e+000  exp(-F*psi/RT)
	 6.000e+002  specific area, m**2/g
	 6.000e+002  m**2 for  1.000e+000 g


Hfo_s         
	 1.000e-002  moles
	                                   Mole                     Log
	Species               Moles    Fraction    Molality    Molality

	Hfo_sO-          5.671e-003       0.567  5.671e-003      -2.246
	Hfo_sOHCa+2      1.939e-003       0.194  1.939e-003      -2.713
	Hfo_sOH          1.404e-003       0.140  1.404e-003      -2.853
	Hfo_sOHBa+2      7.227e-004       0.072  7.227e-004      -3.141
	Hfo_sOFe+        2.559e-004       0.026  2.559e-004      -3.592
	Hfo_sOH2+        7.961e-006       0.001  7.961e-006      -5.099

-----------------------------Exchange composition------------------------------

X               1.000e+000 mol

	                               Equiv-    Equivalent      Log 
	Species             Moles      alents      Fraction     Gamma

	NaX              9.726e-001  9.726e-001  9.726e-001    -0.075
	CaX2             1.186e-002  2.371e-002  2.371e-002    -0.294
	BaX2             1.836e-003  3.672e-003  3.672e-003    -0.300
	FeX2             1.548e-007  3.095e-007  3.095e-007    -0.286

-----------------------------Solution composition------------------------------

	Elements           Molality       Moles

	Ba               9.017e-007  9.017e-007
	C                1.408e-002  1.408e-002
	Ca               1.381e-005  1.381e-005
	Cl               2.000e-003  2.000e-003
	Fe               4.958e-009  4.958e-009
	Na               2.938e-002  2.938e-002
	S                2.560e-003  2.560e-003

----------------------------Description of solution----------------------------

                                       pH  =  10.025      Charge balance
                                       pe  =  -6.146      Adjusted to redox equilibrium
       Specific Conductance (uS/cm, 30 oC) = 3128
                          Density (g/cm3)  =   1.01032
                               Volume (L)  =   0.99246
                        Activity of water  =   0.999
                           Ionic strength  =  3.815e-002
                       Mass of water (kg)  =  1.000e+000
                 Total alkalinity (eq/kg)  =  2.217e-002
                       Total CO2 (mol/kg)  =  1.408e-002
                      Temperature (deg C)  =  30.00
                           Pressure (atm)  = 300.00
                  Electrical balance (eq)  =  1.226e-004
 Percent error, 100*(Cat-|An|)/(Cat+|An|)  =   0.22
                               Iterations  =  39
                                  Total H  = 1.110184e+002
                                  Total O  = 5.555868e+001

----------------------------Distribution of species----------------------------

                                               Log       Log       Log    mole V
   Species          Molality    Activity  Molality  Activity     Gamma   cm3/mol

   OH-            2.409e-004  2.000e-004    -3.618    -3.699    -0.081     -3.08
   H+             1.090e-010  9.436e-011    -9.962   -10.025    -0.063      0.00
   H2O            5.551e+001  9.992e-001     1.744    -0.000     0.000     17.86
Ba           9.017e-007
   BaCO3          3.900e-007  3.934e-007    -6.409    -6.405     0.004     -8.92
   Ba+2           3.830e-007  1.879e-007    -6.417    -6.726    -0.309     -9.75
   BaSO4          1.114e-007  1.124e-007    -6.953    -6.949     0.004     (0)  
   BaHCO3+        1.727e-008  1.446e-008    -7.763    -7.840    -0.077     (0)  
   BaOH+          8.011e-011  6.742e-011   -10.096   -10.171    -0.075     (0)  
C(-4)        2.343e-014
   CH4            2.343e-014  2.364e-014   -13.630   -13.626     0.004     32.22
C(4)         1.408e-002
   CO3-2          7.377e-003  3.748e-003    -2.132    -2.426    -0.294     -1.01
   HCO3-          5.909e-003  4.989e-003    -2.229    -2.302    -0.074     25.52
   NaCO3-         4.648e-004  3.924e-004    -3.333    -3.406    -0.074      2.25
   NaHCO3         3.160e-004  3.188e-004    -3.500    -3.496     0.004     19.41
   CaCO3          1.032e-005  1.041e-005    -4.986    -4.982     0.004    -12.64
   CO2            7.584e-007  7.651e-007    -6.120    -6.116     0.004     30.17
   BaCO3          3.900e-007  3.934e-007    -6.409    -6.405     0.004     -8.92
   CaHCO3+        1.240e-007  1.052e-007    -6.907    -6.978    -0.071     10.62
   BaHCO3+        1.727e-008  1.446e-008    -7.763    -7.840    -0.077     (0)  
   FeCO3          4.432e-009  4.471e-009    -8.353    -8.350     0.004     (0)  
   FeHCO3+        4.075e-011  3.412e-011   -10.390   -10.467    -0.077     (0)  
Ca           1.381e-005
   CaCO3          1.032e-005  1.041e-005    -4.986    -4.982     0.004    -12.64
   Ca+2           3.061e-006  1.557e-006    -5.514    -5.808    -0.294    -15.67
   CaSO4          3.021e-007  3.048e-007    -6.520    -6.516     0.004      8.45
   CaHCO3+        1.240e-007  1.052e-007    -6.907    -6.978    -0.071     10.62
   CaOH+          3.268e-009  2.737e-009    -8.486    -8.563    -0.077     (0)  
   CaHSO4+        2.737e-016  2.292e-016   -15.563   -15.640    -0.077     (0)  
Cl           2.000e-003
   Cl-            2.000e-003  1.665e-003    -2.699    -2.779    -0.080     18.49
   FeCl+          1.365e-013  1.143e-013   -12.865   -12.942    -0.077     (0)  
   FeCl+2         5.201e-031  2.608e-031   -30.284   -30.584    -0.300     (0)  
   FeCl2+         1.972e-033  1.659e-033   -32.705   -32.780    -0.075     (0)  
   FeCl3          2.739e-037  2.763e-037   -36.562   -36.559     0.004     (0)  
Fe(2)        4.915e-009
   FeCO3          4.432e-009  4.471e-009    -8.353    -8.350     0.004     (0)  
   FeOH+          2.857e-010  2.405e-010    -9.544    -9.619    -0.075     (0)  
   Fe+2           9.604e-011  4.972e-011   -10.018   -10.303    -0.286    -19.21
   FeHCO3+        4.075e-011  3.412e-011   -10.390   -10.467    -0.077     (0)  
   Fe(OH)2        3.295e-011  3.324e-011   -10.482   -10.478     0.004     (0)  
   Fe(OH)3-       1.631e-011  1.372e-011   -10.788   -10.862    -0.075     (0)  
   FeSO4          1.145e-011  1.155e-011   -10.941   -10.937     0.004     (0)  
   FeCl+          1.365e-013  1.143e-013   -12.865   -12.942    -0.077     (0)  
   FeHSO4+        8.740e-021  7.319e-021   -20.058   -20.136    -0.077     (0)  
   Fe(HS)2        3.417e-024  3.447e-024   -23.466   -23.463     0.004     (0)  
   Fe(HS)3-       3.954e-033  3.311e-033   -32.403   -32.480    -0.077     (0)  
Fe(3)        4.323e-011
   Fe(OH)4-       4.035e-011  3.407e-011   -10.394   -10.468    -0.074     (0)  
   Fe(OH)3        2.870e-012  2.895e-012   -11.542   -11.538     0.004     (0)  
   Fe(OH)2+       2.029e-015  1.713e-015   -14.693   -14.766    -0.074     (0)  
   FeOH+2         8.084e-022  4.053e-022   -21.092   -21.392    -0.300     (0)  
   FeSO4+         7.699e-029  6.479e-029   -28.114   -28.189    -0.075     (0)  
   Fe+3           1.629e-029  4.438e-030   -28.788   -29.353    -0.565     (0)  
   Fe(SO4)2-      2.060e-030  1.725e-030   -29.686   -29.763    -0.077     (0)  
   FeCl+2         5.201e-031  2.608e-031   -30.284   -30.584    -0.300     (0)  
   FeCl2+         1.972e-033  1.659e-033   -32.705   -32.780    -0.075     (0)  
   FeCl3          2.739e-037  2.763e-037   -36.562   -36.559     0.004     (0)  
   FeHSO4+2       3.337e-038  1.641e-038   -37.477   -37.785    -0.308     (0)  
   Fe2(OH)2+4     0.000e+000  0.000e+000   -40.210   -41.443    -1.233     (0)  
   Fe3(OH)4+5     0.000e+000  0.000e+000   -52.160   -54.086    -1.926     (0)  
H(0)         1.658e-011
   H2             8.292e-012  8.365e-012   -11.081   -11.078     0.004     28.47
Na           2.938e-002
   Na+            2.843e-002  2.391e-002    -1.546    -1.622    -0.075      0.01
   NaCO3-         4.648e-004  3.924e-004    -3.333    -3.406    -0.074      2.25
   NaHCO3         3.160e-004  3.188e-004    -3.500    -3.496     0.004     19.41
   NaSO4-         1.696e-004  1.432e-004    -3.770    -3.844    -0.074     16.77
   NaOH           3.684e-016  3.716e-016   -15.434   -15.430     0.004     (0)  
O(0)         0.000e+000
   O2             0.000e+000  0.000e+000   -68.911   -68.908     0.004     30.31
S(-2)        4.183e-012
   HS-            4.149e-012  3.444e-012   -11.382   -11.463    -0.081     21.04
   S-2            3.153e-014  1.581e-014   -13.501   -13.801    -0.300     (0)  
   H2S            2.023e-015  2.041e-015   -14.694   -14.690     0.004     36.69
   Fe(HS)2        3.417e-024  3.447e-024   -23.466   -23.463     0.004     (0)  
   Fe(HS)3-       3.954e-033  3.311e-033   -32.403   -32.480    -0.077     (0)  
S(6)         2.560e-003
   SO4-2          2.390e-003  1.194e-003    -2.622    -2.923    -0.301     14.26
   NaSO4-         1.696e-004  1.432e-004    -3.770    -3.844    -0.074     16.77
   CaSO4          3.021e-007  3.048e-007    -6.520    -6.516     0.004      8.45
   BaSO4          1.114e-007  1.124e-007    -6.953    -6.949     0.004     (0)  
   FeSO4          1.145e-011  1.155e-011   -10.941   -10.937     0.004     (0)  
   HSO4-          1.072e-011  8.975e-012   -10.970   -11.047    -0.077     40.09
   CaHSO4+        2.737e-016  2.292e-016   -15.563   -15.640    -0.077     (0)  
   FeHSO4+        8.740e-021  7.319e-021   -20.058   -20.136    -0.077     (0)  
   FeSO4+         7.699e-029  6.479e-029   -28.114   -28.189    -0.075     (0)  
   Fe(SO4)2-      2.060e-030  1.725e-030   -29.686   -29.763    -0.077     (0)  
   FeHSO4+2       3.337e-038  1.641e-038   -37.477   -37.785    -0.308     (0)  

------------------------------Saturation indices-------------------------------

	Phase               SI   log IAP   log K(303 K, 300 atm)

	Anhydrite        -4.64     -8.73   -4.09  CaSO4
	Aragonite        -0.13     -8.23   -8.10  CaCO3
	Barite            0.00     -9.65   -9.65  BaSO4
	Calcite          -0.00     -8.23   -8.23  CaCO3
	CH4(g)          -11.03    -13.63   -2.59  CH4
	CO2(g)           -4.70     -6.12   -1.42  CO2
	Fe(OH)3(a)       -3.99      0.72    4.71  Fe(OH)3
	FeS(ppt)         -8.22    -11.74   -3.52  FeS
	Goethite          1.98      0.72   -1.26  FeOOH
	Gypsum           -4.35     -8.73   -4.38  CaSO4:2H2O
	H2(g)            -7.97    -11.08   -3.11  H2
	H2O(g)           -1.28     -0.00    1.28  H2O
	H2S(g)          -13.81    -21.49   -7.68  H2S
	Halite           -6.02     -4.40    1.62  NaCl
	Hematite          5.90      1.44   -4.46  Fe2O3
	Mackinawite      -7.49    -11.74   -4.25  FeS
	Melanterite     -10.45    -13.23   -2.78  FeSO4:7H2O
	O2(g)           -65.79    -68.91   -3.11  O2
	Pyrite           -7.83    -25.47  -17.65  FeS2
	Siderite         -2.07    -12.73  -10.66  FeCO3
	Sulfur          -12.00     -6.93    5.07  S
	Witherite        -0.89     -9.15   -8.26  BaCO3


-----------------------------------------
Beginning of batch-reaction calculations.
-----------------------------------------

Reaction step 1.

Using mix 3.	
Using exchange 3.	Exchange assemblage after simulation 3.
Using surface 3.	
Using pure phase assemblage 3.	
Using solid solution assemblage 3.	
Using gas phase 3.	
Using temperature 3.	
Using pressure 3.	
Using reaction 3.	
Using kinetics 3.	

Mixture 3.	

	 5.000e-001 Solution 2	Solution after simulation 14.                          
	 5.000e-001 Solution 3	                                                       

Reaction 3.	

	 1.000e-003 moles of the following reaction have been added:

	                 Relative
	Reactant            moles

	NaCl                 1.00000

	                 Relative
	Element             moles
	Cl                   1.00000
	Na                   1.00000

Kinetics 3.	

	Time step: 3333.33 seconds

	Rate name       Delta Moles Total Moles   Reactant        Coefficient

	Calcite         -2.857e-007  1.000e+000   CaCO3                     1

----------------Fixed-pressure gas phase 3 dissolved completely----------------

-------------------------------Phase assemblage--------------------------------

                                                      Moles in assemblage
Phase               SI  log IAP  log K(T, P)   Initial       Final       Delta

Barite            0.00    -9.81     -9.81   1.000e+001  9.998e+000 -1.623e-003

--------------------------------Solid solutions--------------------------------


Solid solution                Component        Moles  Delta moles   Mole fract

Calcite                                    9.17e-002
                                calcite    9.09e-002   -9.14e-003    9.91e-001
                               siderite    7.95e-004   -2.05e-004    8.68e-003

------------------------------Surface composition------------------------------

Hfo           
	-9.261e-005  Surface charge, eq
	-1.489e-002  sigma, C/m**2
	-3.092e-002  psi, V
	 1.184e+000  -F*psi/RT
	 3.267e+000  exp(-F*psi/RT)
	 6.000e+002  specific area, m**2/g
	 6.000e+002  m**2 for  1.000e+000 g


Hfo_s         
	 1.000e-002  moles
	                                   Mole                     Log
	Species               Moles    Fraction    Molality    Molality

	Hfo_sO-          5.449e-003       0.545  5.449e-003      -2.264
	Hfo_sOHCa+2      1.933e-003       0.193  1.933e-003      -2.714
	Hfo_sOH          1.764e-003       0.176  1.764e-003      -2.754
	Hfo_sOHBa+2      6.366e-004       0.064  6.366e-004      -3.196
	Hfo_sOFe+        2.047e-004       0.020  2.047e-004      -3.689
	Hfo_sOH2+        1.308e-005       0.001  1.308e-005      -4.884

-----------------------------Exchange composition------------------------------

X               1.000e+000 mol

	                               Equiv-    Equivalent      Log 
	Species             Moles      alents      Fraction     Gamma

	NaX              9.836e-001  9.836e-001  9.836e-001    -0.078
	CaX2             7.200e-003  1.440e-002  1.440e-002    -0.304
	BaX2             9.863e-004  1.973e-003  1.973e-003    -0.311
	FeX2             9.850e-008  1.970e-007  1.970e-007    -0.296

-----------------------------Solution composition------------------------------

	Elements           Molality       Moles

	Ba               5.625e-007  5.625e-007
	C                1.639e-002  1.639e-002
	Ca               9.558e-006  9.558e-006
	Cl               2.500e-003  2.500e-003
	Fe               3.385e-009  3.385e-009
	Na               3.257e-002  3.257e-002
	S                2.903e-003  2.903e-003

----------------------------Description of solution----------------------------

                                       pH  =   9.934      Charge balance
                                       pe  =  -5.965      Adjusted to redox equilibrium
       Specific Conductance (uS/cm, 30 oC) = 3393
                          Density (g/cm3)  =   1.00186
                               Volume (L)  =   1.00124
                        Activity of water  =   0.999
                           Ionic strength  =  4.104e-002
                       Mass of water (kg)  =  1.000e+000
                 Total alkalinity (eq/kg)  =  2.409e-002
                       Total CO2 (mol/kg)  =  1.639e-002
                      Temperature (deg C)  =  30.00
                           Pressure (atm)  = 100.00
                  Electrical balance (eq)  =  1.918e-004
 Percent error, 100*(Cat-|An|)/(Cat+|An|)  =   0.31
                               Iterations  =  32
                                  Total H  = 1.110211e+002
                                  Total O  = 5.556699e+001

----------------------------Distribution of species----------------------------

                                               Log       Log       Log    mole V
   Species          Molality    Activity  Molality  Activity     Gamma   cm3/mol

   OH-            1.666e-004  1.373e-004    -3.778    -3.862    -0.084     -3.50
   H+             1.351e-010  1.164e-010    -9.869    -9.934    -0.065      0.00
   H2O            5.551e+001  9.991e-001     1.744    -0.000     0.000     18.02
Ba           5.625e-007
   Ba+2           2.457e-007  1.173e-007    -6.610    -6.931    -0.321    -11.18
   BaCO3          2.280e-007  2.301e-007    -6.642    -6.638     0.004    -10.04
   BaSO4          7.634e-008  7.706e-008    -7.117    -7.113     0.004     (0)  
   BaHCO3+        1.245e-008  1.035e-008    -7.905    -7.985    -0.080     (0)  
   BaOH+          4.080e-011  3.411e-011   -10.389   -10.467    -0.078     (0)  
C(-4)        1.262e-014
   CH4            1.262e-014  1.274e-014   -13.899   -13.895     0.004     32.22
C(4)         1.639e-002
   HCO3-          8.399e-003  7.046e-003    -2.076    -2.152    -0.076     25.34
   CO3-2          7.033e-003  3.484e-003    -2.153    -2.458    -0.305     -2.41
   NaCO3-         4.887e-004  4.100e-004    -3.311    -3.387    -0.076      0.82
   NaHCO3         4.645e-004  4.689e-004    -3.333    -3.329     0.004     19.41
   CaCO3          6.960e-006  7.026e-006    -5.157    -5.153     0.004    -13.89
   CO2            1.585e-006  1.600e-006    -5.800    -5.796     0.004     29.43
   BaCO3          2.280e-007  2.301e-007    -6.642    -6.638     0.004    -10.04
   CaHCO3+        1.248e-007  1.052e-007    -6.904    -6.978    -0.074     10.20
   BaHCO3+        1.245e-008  1.035e-008    -7.905    -7.985    -0.080     (0)  
   FeCO3          3.051e-009  3.080e-009    -8.516    -8.511     0.004     (0)  
   FeHCO3+        3.486e-011  2.900e-011   -10.458   -10.538    -0.080     (0)  
Ca           9.558e-006
   CaCO3          6.960e-006  7.026e-006    -5.157    -5.153     0.004    -13.89
   Ca+2           2.218e-006  1.100e-006    -5.654    -5.958    -0.304    -16.92
   CaSO4          2.534e-007  2.558e-007    -6.596    -6.592     0.004      7.95
   CaHCO3+        1.248e-007  1.052e-007    -6.904    -6.978    -0.074     10.20
   CaOH+          1.884e-009  1.567e-009    -8.725    -8.805    -0.080     (0)  
   CaHSO4+        2.637e-016  2.194e-016   -15.579   -15.659    -0.080     (0)  
Cl           2.500e-003
   Cl-            2.500e-003  2.066e-003    -2.602    -2.685    -0.083     18.40
   FeCl+          1.263e-013  1.051e-013   -12.898   -12.978    -0.080     (0)  
   FeCl+2         7.448e-031  3.639e-031   -30.128   -30.439    -0.311     (0)  
   FeCl2+         3.437e-033  2.873e-033   -32.464   -32.542    -0.078     (0)  
   FeCl3          5.880e-037  5.936e-037   -36.231   -36.226     0.004     (0)  
Fe(2)        3.364e-009
   FeCO3          3.051e-009  3.080e-009    -8.516    -8.511     0.004     (0)  
   FeOH+          1.728e-010  1.444e-010    -9.763    -9.840    -0.078     (0)  
   Fe+2           7.290e-011  3.685e-011   -10.137   -10.434    -0.296    -20.60
   FeHCO3+        3.486e-011  2.900e-011   -10.458   -10.538    -0.080     (0)  
   Fe(OH)2        1.603e-011  1.619e-011   -10.795   -10.791     0.004     (0)  
   FeSO4          9.311e-012  9.400e-012   -11.031   -11.027     0.004     (0)  
   Fe(OH)3-       6.480e-012  5.418e-012   -11.188   -11.266    -0.078     (0)  
   FeCl+          1.263e-013  1.051e-013   -12.898   -12.978    -0.080     (0)  
   FeHSO4+        8.831e-021  7.346e-021   -20.054   -20.134    -0.080     (0)  
   Fe(HS)2        1.694e-025  1.711e-025   -24.771   -24.767     0.004     (0)  
   Fe(HS)3-       5.110e-035  4.251e-035   -34.292   -34.372    -0.080     (0)  
Fe(3)        2.143e-011
   Fe(OH)4-       1.971e-011  1.654e-011   -10.705   -10.782    -0.076     (0)  
   Fe(OH)3        1.717e-012  1.734e-012   -11.765   -11.761     0.004     (0)  
   Fe(OH)2+       1.508e-015  1.265e-015   -14.822   -14.898    -0.076     (0)  
   FeOH+2         7.562e-022  3.694e-022   -21.121   -21.432    -0.311     (0)  
   FeSO4+         9.567e-029  7.998e-029   -28.019   -28.097    -0.078     (0)  
   Fe+3           1.912e-029  4.990e-030   -28.719   -29.302    -0.583     (0)  
   Fe(SO4)2-      2.811e-030  2.339e-030   -29.551   -29.631    -0.080     (0)  
   FeCl+2         7.448e-031  3.639e-031   -30.128   -30.439    -0.311     (0)  
   FeCl2+         3.437e-033  2.873e-033   -32.464   -32.542    -0.078     (0)  
   FeCl3          5.880e-037  5.936e-037   -36.231   -36.226     0.004     (0)  
   FeHSO4+2       5.218e-038  2.499e-038   -37.282   -37.602    -0.320     (0)  
   Fe2(OH)2+4     0.000e+000  0.000e+000   -40.244   -41.523    -1.279     (0)  
   Fe3(OH)4+5     0.000e+000  0.000e+000   -52.299   -54.298    -1.999     (0)  
H(0)         1.377e-011
   H2             6.884e-012  6.950e-012   -11.162   -11.158     0.004     28.55
Na           3.257e-002
   Na+            3.140e-002  2.623e-002    -1.503    -1.581    -0.078     -0.62
   NaCO3-         4.887e-004  4.100e-004    -3.311    -3.387    -0.076      0.82
   NaHCO3         4.645e-004  4.689e-004    -3.333    -3.329     0.004     19.41
   NaSO4-         2.087e-004  1.751e-004    -3.681    -3.757    -0.076     18.18
   NaOH           3.274e-016  3.305e-016   -15.485   -15.481     0.004     (0)  
O(0)         0.000e+000
   O2             0.000e+000  0.000e+000   -68.571   -68.567     0.004     30.61
S(-2)        2.037e-012
   HS-            2.029e-012  1.672e-012   -11.693   -11.777    -0.084     20.99
   S-2            6.789e-015  3.317e-015   -14.168   -14.479    -0.311     (0)  
   H2S            1.371e-015  1.384e-015   -14.863   -14.859     0.004     37.01
   Fe(HS)2        1.694e-025  1.711e-025   -24.771   -24.767     0.004     (0)  
   Fe(HS)3-       5.110e-035  4.251e-035   -34.292   -34.372    -0.080     (0)  
S(6)         2.903e-003
   SO4-2          2.694e-003  1.311e-003    -2.570    -2.882    -0.313     14.86
   NaSO4-         2.087e-004  1.751e-004    -3.681    -3.757    -0.076     18.18
   CaSO4          2.534e-007  2.558e-007    -6.596    -6.592     0.004      7.95
   BaSO4          7.634e-008  7.706e-008    -7.117    -7.113     0.004     (0)  
   HSO4-          1.800e-011  1.497e-011   -10.745   -10.825    -0.080     40.51
   FeSO4          9.311e-012  9.400e-012   -11.031   -11.027     0.004     (0)  
   CaHSO4+        2.637e-016  2.194e-016   -15.579   -15.659    -0.080     (0)  
   FeHSO4+        8.831e-021  7.346e-021   -20.054   -20.134    -0.080     (0)  
   FeSO4+         9.567e-029  7.998e-029   -28.019   -28.097    -0.078     (0)  
   Fe(SO4)2-      2.811e-030  2.339e-030   -29.551   -29.631    -0.080     (0)  
   FeHSO4+2       5.218e-038  2.499e-038   -37.282   -37.602    -0.320     (0)  

------------------------------Saturation indices-------------------------------

	Phase               SI   log IAP   log K(303 K, 100 atm)

	Anhydrite        -4.59     -8.84   -4.25  CaSO4
	Aragonite        -0.14     -8.42   -8.28  CaCO3
	Barite            0.00     -9.81   -9.81  BaSO4
	Calcite          -0.00     -8.42   -8.41  CaCO3
	CH4(g)          -11.11    -13.89   -2.78  CH4
	CO2(g)           -4.32     -5.80   -1.48  CO2
	Fe(OH)3(a)       -4.33      0.50    4.83  Fe(OH)3
	FeS(ppt)         -8.50    -12.28   -3.78  FeS
	Goethite          1.70      0.50   -1.20  FeOOH
	Gypsum           -4.33     -8.84   -4.51  CaSO4:2H2O
	H2(g)            -8.05    -11.16   -3.11  H2
	H2O(g)           -1.35     -0.00    1.35  H2O
	H2S(g)          -13.83    -21.71   -7.88  H2S
	Halite           -5.86     -4.27    1.59  NaCl
	Hematite          5.40      1.00   -4.40  Fe2O3
	Mackinawite      -7.76    -12.28   -4.51  FeS
	Melanterite     -10.96    -13.32   -2.36  FeSO4:7H2O
	O2(g)           -65.58    -68.57   -2.99  O2
	Pyrite           -7.94    -26.05  -18.11  FeS2
	Siderite         -2.06    -12.89  -10.83  FeCO3
	Sulfur          -11.79     -6.92    4.87  S
	Witherite        -0.93     -9.39   -8.45  BaCO3


Reaction step 2.

Using mix 3.	
Using exchange 3.	Exchange assemblage after simulation 3.
Using surface 3.	
Using pure phase assemblage 3.	
Using solid solution assemblage 3.	
Using gas phase 3.	
Using temperature 3.	
Using pressure 3.	
Using reaction 3.	
Using kinetics 3.	

Mixture 3.	

	 5.000e-001 Solution 2	Solution after simulation 14.                          
	 5.000e-001 Solution 3	                                                       

Reaction 3.	

	 1.000e-003 moles of the following reaction have been added:

	                 Relative
	Reactant            moles

	NaCl                 1.00000

	                 Relative
	Element             moles
	Cl                   1.00000
	Na                   1.00000

Kinetics 3.	

	Time step: 6666.67 seconds

	Rate name       Delta Moles Total Moles   Reactant        Coefficient

	Calcite         -5.734e-007  1.000e+000   CaCO3                     1

----------------Fixed-pressure gas phase 3 dissolved completely----------------

-------------------------------Phase assemblage--------------------------------

                                                      Moles in assemblage
Phase               SI  log IAP  log K(T, P)   Initial       Final       Delta

Barite           -0.00    -9.73     -9.73   1.000e+001  9.998e+000 -1.727e-003

--------------------------------Solid solutions--------------------------------


Solid solution                Component        Moles  Delta moles   Mole fract

Calcite                                    9.11e-002
                                calcite    9.03e-002   -9.72e-003    9.91e-001
                               siderite    7.93e-004   -2.07e-004    8.71e-003

------------------------------Surface composition------------------------------

Hfo           
	-8.909e-005  Surface charge, eq
	-1.433e-002  sigma, C/m**2
	-2.920e-002  psi, V
	 1.118e+000  -F*psi/RT
	 3.059e+000  exp(-F*psi/RT)
	 6.000e+002  specific area, m**2/g
	 6.000e+002  m**2 for  1.000e+000 g


Hfo_s         
	 1.000e-002  moles
	                                   Mole                     Log
	Species               Moles    Fraction    Molality    Molality

	Hfo_sO-          5.470e-003       0.547  5.470e-003      -2.262
	Hfo_sOHCa+2      1.935e-003       0.194  1.935e-003      -2.713
	Hfo_sOH          1.729e-003       0.173  1.729e-003      -2.762
	Hfo_sOHBa+2      6.456e-004       0.065  6.456e-004      -3.190
	Hfo_sOFe+        2.070e-004       0.021  2.070e-004      -3.684
	Hfo_sOH2+        1.253e-005       0.001  1.253e-005      -4.902

-----------------------------Exchange composition------------------------------

X               1.000e+000 mol

	                               Equiv-    Equivalent      Log 
	Species             Moles      alents      Fraction     Gamma

	NaX              9.823e-001  9.823e-001  9.823e-001    -0.079
	CaX2             7.785e-003  1.557e-002  1.557e-002    -0.308
	BaX2             1.081e-003  2.162e-003  2.162e-003    -0.315
	FeX2             1.051e-007  2.101e-007  2.101e-007    -0.300

-----------------------------Solution composition------------------------------

	Elements           Molality       Moles

	Ba               6.853e-007  6.853e-007
	C                1.699e-002  1.699e-002
	Ca               1.153e-005  1.153e-005
	Cl               2.500e-003  2.500e-003
	Fe               4.106e-009  4.106e-009
	Na               3.392e-002  3.392e-002
	S                3.007e-003  3.007e-003

----------------------------Description of solution----------------------------

                                       pH  =   9.916      Charge balance
                                       pe  =  -5.965      Adjusted to redox equilibrium
       Specific Conductance (uS/cm, 30 oC) = 3526
                          Density (g/cm3)  =   1.00629
                               Volume (L)  =   0.99694
                        Activity of water  =   0.999
                           Ionic strength  =  4.292e-002
                       Mass of water (kg)  =  1.000e+000
                 Total alkalinity (eq/kg)  =  2.525e-002
                       Total CO2 (mol/kg)  =  1.699e-002
                      Temperature (deg C)  =  30.00
                           Pressure (atm)  = 200.00
                  Electrical balance (eq)  =  1.882e-004
 Percent error, 100*(Cat-|An|)/(Cat+|An|)  =   0.29
                               Iterations  =  32
                                  Total H  = 1.110211e+002
                                  Total O  = 5.556918e+001

----------------------------Distribution of species----------------------------

                                               Log       Log       Log    mole V
   Species          Molality    Activity  Molality  Activity     Gamma   cm3/mol

   OH-            1.741e-004  1.431e-004    -3.759    -3.844    -0.085     -3.27
   H+             1.412e-010  1.214e-010    -9.850    -9.916    -0.065      0.00
   H2O            5.551e+001  9.991e-001     1.744    -0.000     0.000     17.94
Ba           6.853e-007
   Ba+2           2.925e-007  1.384e-007    -6.534    -6.859    -0.325    -10.42
   BaCO3          2.841e-007  2.869e-007    -6.546    -6.542     0.004     -9.46
   BaSO4          9.228e-008  9.319e-008    -7.035    -7.031     0.004     (0)  
   BaHCO3+        1.634e-008  1.356e-008    -7.787    -7.868    -0.081     (0)  
   BaOH+          4.623e-011  3.857e-011   -10.335   -10.414    -0.079     (0)  
C(-4)        1.427e-014
   CH4            1.427e-014  1.441e-014   -13.846   -13.841     0.004     32.22
C(4)         1.699e-002
   HCO3-          8.401e-003  7.034e-003    -2.076    -2.153    -0.077     25.45
   CO3-2          7.546e-003  3.708e-003    -2.122    -2.431    -0.309     -1.66
   NaCO3-         5.342e-004  4.473e-004    -3.272    -3.349    -0.077      1.57
   NaHCO3         4.934e-004  4.983e-004    -3.307    -3.302     0.004     19.41
   CaCO3          8.489e-006  8.573e-006    -5.071    -5.067     0.004    -13.24
   CO2            1.508e-006  1.523e-006    -5.822    -5.817     0.004     29.81
   BaCO3          2.841e-007  2.869e-007    -6.546    -6.542     0.004     -9.46
   CaHCO3+        1.449e-007  1.220e-007    -6.839    -6.914    -0.075     10.42
   BaHCO3+        1.634e-008  1.356e-008    -7.787    -7.868    -0.081     (0)  
   FeCO3          3.730e-009  3.768e-009    -8.428    -8.424     0.004     (0)  
   FeHCO3+        4.458e-011  3.701e-011   -10.351   -10.432    -0.081     (0)  
Ca           1.153e-005
   CaCO3          8.489e-006  8.573e-006    -5.071    -5.067     0.004    -13.24
   Ca+2           2.603e-006  1.282e-006    -5.584    -5.892    -0.308    -16.25
   CaSO4          2.907e-007  2.936e-007    -6.537    -6.532     0.004      8.21
   CaHCO3+        1.449e-007  1.220e-007    -6.839    -6.914    -0.075     10.42
   CaOH+          2.108e-009  1.750e-009    -8.676    -8.757    -0.081     (0)  
   CaHSO4+        3.292e-016  2.733e-016   -15.483   -15.563    -0.081     (0)  
Cl           2.500e-003
   Cl-            2.500e-003  2.061e-003    -2.602    -2.686    -0.084     18.45
   FeCl+          1.452e-013  1.205e-013   -12.838   -12.919    -0.081     (0)  
   FeCl+2         8.631e-031  4.180e-031   -30.064   -30.379    -0.315     (0)  
   FeCl2+         3.947e-033  3.293e-033   -32.404   -32.482    -0.079     (0)  
   FeCl3          6.719e-037  6.786e-037   -36.173   -36.168     0.004     (0)  
Fe(2)        4.085e-009
   FeCO3          3.730e-009  3.768e-009    -8.428    -8.424     0.004     (0)  
   FeOH+          1.907e-010  1.591e-010    -9.720    -9.798    -0.079     (0)  
   Fe+2           8.444e-011  4.236e-011   -10.073   -10.373    -0.300    -19.86
   FeHCO3+        4.458e-011  3.701e-011   -10.351   -10.432    -0.081     (0)  
   Fe(OH)2        1.692e-011  1.709e-011   -10.772   -10.767     0.004     (0)  
   FeSO4          1.097e-011  1.108e-011   -10.960   -10.956     0.004     (0)  
   Fe(OH)3-       6.571e-012  5.482e-012   -11.182   -11.261    -0.079     (0)  
   FeCl+          1.452e-013  1.205e-013   -12.838   -12.919    -0.081     (0)  
   FeHSO4+        1.088e-020  9.032e-021   -19.963   -20.044    -0.081     (0)  
   Fe(HS)2        4.260e-025  4.302e-025   -24.371   -24.366     0.004     (0)  
   Fe(HS)3-       1.905e-034  1.581e-034   -33.720   -33.801    -0.081     (0)  
Fe(3)        2.093e-011
   Fe(OH)4-       1.919e-011  1.607e-011   -10.717   -10.794    -0.077     (0)  
   Fe(OH)3        1.740e-012  1.758e-012   -11.759   -11.755     0.004     (0)  
   Fe(OH)2+       1.599e-015  1.338e-015   -14.796   -14.873    -0.077     (0)  
   FeOH+2         8.419e-022  4.077e-022   -21.075   -21.390    -0.315     (0)  
   FeSO4+         1.132e-028  9.442e-029   -27.946   -28.025    -0.079     (0)  
   Fe+3           2.229e-029  5.747e-030   -28.652   -29.241    -0.589     (0)  
   Fe(SO4)2-      3.409e-030  2.830e-030   -29.467   -29.548    -0.081     (0)  
   FeCl+2         8.631e-031  4.180e-031   -30.064   -30.379    -0.315     (0)  
   FeCl2+         3.947e-033  3.293e-033   -32.404   -32.482    -0.079     (0)  
   FeCl3          6.719e-037  6.786e-037   -36.173   -36.168     0.004     (0)  
   FeHSO4+2       6.483e-038  3.078e-038   -37.188   -37.512    -0.324     (0)  
   Fe2(OH)2+4     0.000e+000  0.000e+000   -40.143   -41.437    -1.294     (0)  
   Fe3(OH)4+5     0.000e+000  0.000e+000   -52.166   -54.188    -2.022     (0)  
H(0)         1.331e-011
   H2             6.655e-012  6.721e-012   -11.177   -11.173     0.004     28.51
Na           3.392e-002
   Na+            3.268e-002  2.724e-002    -1.486    -1.565    -0.079     -0.29
   NaCO3-         5.342e-004  4.473e-004    -3.272    -3.349    -0.077      1.57
   NaHCO3         4.934e-004  4.983e-004    -3.307    -3.302     0.004     19.41
   NaSO4-         2.204e-004  1.845e-004    -3.657    -3.734    -0.077     17.48
   NaOH           3.257e-016  3.290e-016   -15.487   -15.483     0.004     (0)  
O(0)         0.000e+000
   O2             0.000e+000  0.000e+000   -68.632   -68.628     0.004     30.45
S(-2)        2.209e-012
   HS-            2.197e-012  1.806e-012   -11.658   -11.743    -0.085     21.03
   S-2            9.709e-015  4.702e-015   -14.013   -14.328    -0.315     (0)  
   H2S            1.450e-015  1.465e-015   -14.839   -14.834     0.004     36.84
   Fe(HS)2        4.260e-025  4.302e-025   -24.371   -24.366     0.004     (0)  
   Fe(HS)3-       1.905e-034  1.581e-034   -33.720   -33.801    -0.081     (0)  
S(6)         3.007e-003
   SO4-2          2.786e-003  1.344e-003    -2.555    -2.872    -0.317     14.58
   NaSO4-         2.204e-004  1.845e-004    -3.657    -3.734    -0.077     17.48
   CaSO4          2.907e-007  2.936e-007    -6.537    -6.532     0.004      8.21
   BaSO4          9.228e-008  9.319e-008    -7.035    -7.031     0.004     (0)  
   HSO4-          1.739e-011  1.444e-011   -10.760   -10.841    -0.081     40.30
   FeSO4          1.097e-011  1.108e-011   -10.960   -10.956     0.004     (0)  
   CaHSO4+        3.292e-016  2.733e-016   -15.483   -15.563    -0.081     (0)  
   FeHSO4+        1.088e-020  9.032e-021   -19.963   -20.044    -0.081     (0)  
   FeSO4+         1.132e-028  9.442e-029   -27.946   -28.025    -0.079     (0)  
   Fe(SO4)2-      3.409e-030  2.830e-030   -29.467   -29.548    -0.081     (0)  
   FeHSO4+2       6.483e-038  3.078e-038   -37.188   -37.512    -0.324     (0)  

------------------------------Saturation indices-------------------------------

	Phase               SI   log IAP   log K(303 K, 200 atm)

	Anhydrite        -4.60     -8.76   -4.17  CaSO4
	Aragonite        -0.13     -8.32   -8.19  CaCO3
	Barite            0.00     -9.73   -9.73  BaSO4
	Calcite          -0.00     -8.32   -8.32  CaCO3
	CH4(g)          -11.15    -13.84   -2.69  CH4
	CO2(g)           -4.37     -5.82   -1.45  CO2
	Fe(OH)3(a)       -4.27      0.51    4.77  Fe(OH)3
	FeS(ppt)         -8.55    -12.20   -3.65  FeS
	Goethite          1.74      0.51   -1.23  FeOOH
	Gypsum           -4.32     -8.76   -4.45  CaSO4:2H2O
	H2(g)            -8.06    -11.17   -3.11  H2
	H2O(g)           -1.31     -0.00    1.31  H2O
	H2S(g)          -13.88    -21.66   -7.78  H2S
	Halite           -5.86     -4.25    1.61  NaCl
	Hematite          5.44      1.01   -4.43  Fe2O3
	Mackinawite      -7.82    -12.20   -4.38  FeS
	Melanterite     -10.68    -13.25   -2.57  FeSO4:7H2O
	O2(g)           -65.58    -68.63   -3.05  O2
	Pyrite           -8.08    -25.96  -17.88  FeS2
	Siderite         -2.06    -12.80  -10.74  FeCO3
	Sulfur          -11.90     -6.93    4.97  S
	Witherite        -0.93     -9.29   -8.36  BaCO3


Reaction step 3.

Using mix 3.	
Using exchange 3.	Exchange assemblage after simulation 3.
Using surface 3.	
Using pure phase assemblage 3.	
Using solid solution assemblage 3.	
Using gas phase 3.	
Using temperature 3.	
Using pressure 3.	
Using reaction 3.	
Using kinetics 3.	

Mixture 3.	

	 5.000e-001 Solution 2	Solution after simulation 14.                          
	 5.000e-001 Solution 3	                                                       

Reaction 3.	

	 1.000e-003 moles of the following reaction have been added:

	                 Relative
	Reactant            moles

	NaCl                 1.00000

	                 Relative
	Element             moles
	Cl                   1.00000
	Na                   1.00000

Kinetics 3.	

	Time step: 10000 seconds

	Rate name       Delta Moles Total Moles   Reactant        Coefficient

	Calcite         -8.635e-007  1.000e+000   CaCO3                     1

----------------Fixed-pressure gas phase 3 dissolved completely----------------

-------------------------------Phase assemblage--------------------------------

                                                      Moles in assemblage
Phase               SI  log IAP  log K(T, P)   Initial       Final       Delta

Barite           -0.00    -9.65     -9.65   1.000e+001  9.998e+000 -1.837e-003

--------------------------------Solid solutions--------------------------------


Solid solution                Component        Moles  Delta moles   Mole fract

Calcite                                    9.05e-002
                                calcite    8.97e-002   -1.03e-002    9.91e-001
                               siderite    7.91e-004   -2.09e-004    8.74e-003

------------------------------Surface composition------------------------------

Hfo           
	-8.560e-005  Surface charge, eq
	-1.377e-002  sigma, C/m**2
	-2.755e-002  psi, V
	 1.055e+000  -F*psi/RT
	 2.871e+000  exp(-F*psi/RT)
	 6.000e+002  specific area, m**2/g
	 6.000e+002  m**2 for  1.000e+000 g


Hfo_s         
	 1.000e-002  moles
	                                   Mole                     Log
	Species               Moles    Fraction    Molality    Molality

	Hfo_sO-          5.490e-003       0.549  5.490e-003      -2.260
	Hfo_sOHCa+2      1.936e-003       0.194  1.936e-003      -2.713
	Hfo_sOH          1.697e-003       0.170  1.697e-003      -2.770
	Hfo_sOHBa+2      6.556e-004       0.066  6.556e-004      -3.183
	Hfo_sOFe+        2.090e-004       0.021  2.090e-004      -3.680
	Hfo_sOH2+        1.202e-005       0.001  1.202e-005      -4.920

-----------------------------Exchange composition------------------------------

X               1.000e+000 mol

	                               Equiv-    Equivalent      Log 
	Species             Moles      alents      Fraction     Gamma

	NaX              9.809e-001  9.809e-001  9.809e-001    -0.080
	CaX2             8.377e-003  1.675e-002  1.675e-002    -0.311
	BaX2             1.181e-003  2.363e-003  2.363e-003    -0.318
	FeX2             1.116e-007  2.231e-007  2.231e-007    -0.303

-----------------------------Solution composition------------------------------

	Elements           Molality       Moles

	Ba               8.326e-007  8.326e-007
	C                1.758e-002  1.758e-002
	Ca               1.384e-005  1.384e-005
	Cl               2.500e-003  2.500e-003
	Fe               4.935e-009  4.935e-009
	Na               3.531e-002  3.531e-002
	S                3.117e-003  3.117e-003

----------------------------Description of solution----------------------------

                                       pH  =   9.898      Charge balance
                                       pe  =  -5.965      Adjusted to redox equilibrium
       Specific Conductance (uS/cm, 30 oC) = 3662
                          Density (g/cm3)  =   1.01065
                               Volume (L)  =   0.99275
                        Activity of water  =   0.999
                           Ionic strength  =  4.483e-002
                       Mass of water (kg)  =  1.000e+000
                 Total alkalinity (eq/kg)  =  2.642e-002
                       Total CO2 (mol/kg)  =  1.758e-002
                      Temperature (deg C)  =  30.00
                           Pressure (atm)  = 300.00
                  Electrical balance (eq)  =  1.848e-004
 Percent error, 100*(Cat-|An|)/(Cat+|An|)  =   0.27
                               Iterations  =  32
                                  Total H  = 1.110211e+002
                                  Total O  = 5.557141e+001

----------------------------Distribution of species----------------------------

                                               Log       Log       Log    mole V
   Species          Molality    Activity  Molality  Activity     Gamma   cm3/mol

   OH-            1.818e-004  1.490e-004    -3.740    -3.827    -0.086     -3.06
   H+             1.473e-010  1.265e-010    -9.832    -9.898    -0.066      0.00
   H2O            5.551e+001  9.990e-001     1.744    -0.000     0.000     17.86
Ba           8.326e-007
   BaCO3          3.536e-007  3.573e-007    -6.451    -6.447     0.004     -8.92
   Ba+2           3.466e-007  1.625e-007    -6.460    -6.789    -0.329     -9.71
   BaSO4          1.111e-007  1.123e-007    -6.954    -6.950     0.004     (0)  
   BaHCO3+        2.124e-008  1.759e-008    -7.673    -7.755    -0.082     (0)  
   BaOH+          5.221e-011  4.347e-011   -10.282   -10.362    -0.080     (0)  
C(-4)        1.647e-014
   CH4            1.647e-014  1.664e-014   -13.783   -13.779     0.004     32.22
C(4)         1.758e-002
   HCO3-          8.400e-003  7.019e-003    -2.076    -2.154    -0.078     25.56
   CO3-2          8.063e-003  3.931e-003    -2.093    -2.406    -0.312     -0.94
   NaCO3-         5.826e-004  4.868e-004    -3.235    -3.313    -0.078      2.28
   NaHCO3         5.251e-004  5.306e-004    -3.280    -3.275     0.004     19.41
   CaCO3          1.030e-005  1.041e-005    -4.987    -4.982     0.004    -12.64
   CO2            1.430e-006  1.445e-006    -5.845    -5.840     0.004     30.17
   BaCO3          3.536e-007  3.573e-007    -6.451    -6.447     0.004     -8.92
   CaHCO3+        1.679e-007  1.410e-007    -6.775    -6.851    -0.076     10.63
   BaHCO3+        2.124e-008  1.759e-008    -7.673    -7.755    -0.082     (0)  
   FeCO3          4.514e-009  4.561e-009    -8.345    -8.341     0.004     (0)  
   FeHCO3+        5.636e-011  4.669e-011   -10.249   -10.331    -0.082     (0)  
Ca           1.384e-005
   CaCO3          1.030e-005  1.041e-005    -4.987    -4.982     0.004    -12.64
   Ca+2           3.035e-006  1.483e-006    -5.518    -5.829    -0.311    -15.64
   CaSO4          3.321e-007  3.355e-007    -6.479    -6.474     0.004      8.45
   CaHCO3+        1.679e-007  1.410e-007    -6.775    -6.851    -0.076     10.63
   CaOH+          2.346e-009  1.943e-009    -8.630    -8.712    -0.082     (0)  
   CaHSO4+        4.081e-016  3.381e-016   -15.389   -15.471    -0.082     (0)  
Cl           2.500e-003
   Cl-            2.500e-003  2.056e-003    -2.602    -2.687    -0.085     18.50
   FeCl+          1.657e-013  1.373e-013   -12.781   -12.862    -0.082     (0)  
   FeCl+2         9.897e-031  4.754e-031   -30.004   -30.323    -0.318     (0)  
   FeCl2+         4.487e-033  3.735e-033   -32.348   -32.428    -0.080     (0)  
   FeCl3          7.601e-037  7.680e-037   -36.119   -36.115     0.004     (0)  
Fe(2)        4.915e-009
   FeCO3          4.514e-009  4.561e-009    -8.345    -8.341     0.004     (0)  
   FeOH+          2.095e-010  1.744e-010    -9.679    -9.758    -0.080     (0)  
   Fe+2           9.715e-011  4.837e-011   -10.013   -10.315    -0.303    -19.18
   FeHCO3+        5.636e-011  4.669e-011   -10.249   -10.331    -0.082     (0)  
   Fe(OH)2        1.779e-011  1.797e-011   -10.750   -10.745     0.004     (0)  
[...]
S(-2)        7.547e-013
   HS-            7.515e-013  6.155e-013   -12.124   -12.211    -0.087     21.03
   S-2            2.532e-015  1.212e-015   -14.597   -14.916    -0.320     (0)  
   H2S            6.531e-016  6.599e-016   -15.185   -15.181     0.004     36.84
   Fe(HS)2        5.398e-026  5.454e-026   -25.268   -25.263     0.004     (0)  
   Fe(HS)3-       8.255e-036  6.833e-036   -35.083   -35.165    -0.082     (0)  
S(6)         3.097e-003
   SO4-2          2.858e-003  1.363e-003    -2.544    -2.865    -0.322     14.59
   NaSO4-         2.380e-004  1.988e-004    -3.623    -3.702    -0.078     17.50
   CaSO4          3.118e-007  3.150e-007    -6.506    -6.502     0.004      8.21
   BaSO4          9.222e-008  9.317e-008    -7.035    -7.031     0.004     (0)  
   HSO4-          2.339e-011  1.936e-011   -10.631   -10.713    -0.082     40.30
   FeSO4          1.214e-011  1.226e-011   -10.916   -10.911     0.004     (0)  
   CaHSO4+        4.682e-016  3.875e-016   -15.330   -15.412    -0.082     (0)  
   FeHSO4+        1.597e-020  1.322e-020   -19.797   -19.879    -0.082     (0)  
   FeSO4+         1.971e-028  1.640e-028   -27.705   -27.785    -0.080     (0)  
   Fe(SO4)2-      6.023e-030  4.985e-030   -29.220   -29.302    -0.082     (0)  
   FeHSO4+2       1.506e-037  7.067e-038   -36.822   -37.151    -0.329     (0)  

------------------------------Saturation indices-------------------------------

	Phase               SI   log IAP   log K(303 K, 200 atm)

	Anhydrite        -4.57     -8.73   -4.17  CaSO4
	Aragonite        -0.13     -8.32   -8.19  CaCO3
	Barite            0.00     -9.73   -9.73  BaSO4
	Calcite          -0.00     -8.32   -8.32  CaCO3
	CH4(g)          -11.53    -14.22   -2.69  CH4
	CO2(g)           -4.15     -5.60   -1.45  CO2
	Fe(OH)3(a)       -4.40      0.37    4.77  Fe(OH)3
	FeS(ppt)         -9.10    -12.75   -3.65  FeS
	Goethite          1.61      0.38   -1.23  FeOOH
	Gypsum           -4.29     -8.73   -4.45  CaSO4:2H2O
	H2(g)            -8.21    -11.32   -3.11  H2
	H2O(g)           -1.31     -0.00    1.31  H2O
	H2S(g)          -14.22    -22.01   -7.78  H2S
	Halite           -5.75     -4.15    1.61  NaCl
	Hematite          5.18      0.75   -4.43  Fe2O3
	Mackinawite      -8.37    -12.75   -4.38  FeS
	Melanterite     -10.63    -13.20   -2.57  FeSO4:7H2O
	O2(g)           -65.28    -68.33   -3.05  O2
	Pyrite           -8.83    -26.71  -17.88  FeS2
	Siderite         -2.05    -12.79  -10.74  FeCO3
	Sulfur          -12.10     -7.13    4.97  S
	Witherite        -0.97     -9.32   -8.36  BaCO3


Reaction step 3.

Using mix 1.	
Using exchange 1.	Exchange assemblage after simulation 3.
Using surface 1.	
Using pure phase assemblage 1.	
Using solid solution assemblage 1.	
Using gas phase 1.	
Using temperature 1.	
Using pressure 1.	
Using reaction 1.	
Using kinetics 1.	

Mixture 1.	

	 5.000e-001 Solution 1	                                                       

Reaction 1.	

	 1.000e-003 moles of the following reaction have been added:

	                 Relative
	Reactant            moles

	NaCl                 1.00000

	                 Relative
	Element             moles
	Cl                   1.00000
	Na                   1.00000

Kinetics 1.	

	Time step: 1 seconds

	Rate name       Delta Moles Total Moles   Reactant        Coefficient

	Calcite         -8.889e-011  1.000e+000   CaCO3                     1

----------------Fixed-pressure gas phase 1 dissolved completely----------------

-------------------------------Phase assemblage--------------------------------

                                                      Moles in assemblage
Phase               SI  log IAP  log K(T, P)   Initial       Final       Delta

Barite           -0.00    -9.65     -9.65   1.000e+001  9.998e+000 -1.627e-003

--------------------------------Solid solutions--------------------------------


Solid solution                Component        Moles  Delta moles   Mole fract

Calcite                                    9.12e-002
                                calcite    9.04e-002   -9.65e-003    9.91e-001
                               siderite    8.20e-004   -1.80e-004    9.00e-003

------------------------------Surface composition------------------------------

Hfo           
	-7.917e-005  Surface charge, eq
	-1.273e-002  sigma, C/m**2
	-2.504e-002  psi, V
	 9.587e-001  -F*psi/RT
	 2.608e+000  exp(-F*psi/RT)
	 6.000e+002  specific area, m**2/g
	 6.000e+002  m**2 for  1.000e+000 g


Hfo_s         
	 1.000e-002  moles
	                                   Mole                     Log
	Species               Moles    Fraction    Molality    Molality

	Hfo_sO-          5.326e-003       0.533  1.065e-002      -1.973
	Hfo_sOH          1.953e-003       0.195  3.906e-003      -2.408
	Hfo_sOHCa+2      1.918e-003       0.192  3.836e-003      -2.416
	Hfo_sOHBa+2      6.073e-004       0.061  1.215e-003      -2.916
	Hfo_sOFe+        1.797e-004       0.018  3.594e-004      -3.444
	Hfo_sOH2+        1.641e-005       0.002  3.282e-005      -4.484

-----------------------------Exchange composition------------------------------

X               1.000e+000 mol

	                               Equiv-    Equivalent      Log 
	Species             Moles      alents      Fraction     Gamma

	NaX              9.825e-001  9.825e-001  9.825e-001    -0.081
	CaX2             7.724e-003  1.545e-002  1.545e-002    -0.317
	BaX2             1.019e-003  2.039e-003  2.039e-003    -0.324
	FeX2             1.058e-007  2.117e-007  2.117e-007    -0.308

-----------------------------Solution composition------------------------------

	Elements           Molality       Moles

	Ba               8.104e-007  4.052e-007
	C                1.969e-002  9.843e-003
	Ca               1.408e-005  7.040e-006
	Cl               3.000e-003  1.500e-003
	Fe               5.036e-009  2.518e-009
	Na               3.797e-002  1.899e-002
	S                3.254e-003  1.627e-003

----------------------------Description of solution----------------------------

                                       pH  =   9.782      Charge balance
                                       pe  =  -5.779      Adjusted to redox equilibrium
       Specific Conductance (uS/cm, 30 oC) = 3885
                          Density (g/cm3)  =   1.01080
                               Volume (L)  =   0.49647
                        Activity of water  =   0.999
                           Ionic strength  =  4.714e-002
                       Mass of water (kg)  =  5.000e-001
                 Total alkalinity (eq/kg)  =  2.826e-002
                       Total CO2 (mol/kg)  =  1.969e-002
                      Temperature (deg C)  =  30.00
                           Pressure (atm)  = 300.00
                  Electrical balance (eq)  =  1.170e-004
 Percent error, 100*(Cat-|An|)/(Cat+|An|)  =   0.32
                               Iterations  =  36
                                  Total H  = 5.551174e+001
                                  Total O  = 2.778913e+001

----------------------------Distribution of species----------------------------

                                               Log       Log       Log    mole V
   Species          Molality    Activity  Molality  Activity     Gamma   cm3/mol

   OH-            1.398e-004  1.141e-004    -3.855    -3.943    -0.088     -3.05
   H+             1.928e-010  1.652e-010    -9.715    -9.782    -0.067      0.00
   H2O            5.551e+001  9.989e-001     1.744    -0.000     0.000     17.86
Ba           8.104e-007
   Ba+2           3.429e-007  1.585e-007    -6.465    -6.800    -0.335     -9.70
   BaCO3          3.304e-007  3.340e-007    -6.481    -6.476     0.005     -8.92
   BaSO4          1.110e-007  1.123e-007    -6.955    -6.950     0.005     (0)  
   BaHCO3+        2.600e-008  2.146e-008    -7.585    -7.668    -0.083     (0)  
   BaOH+          3.913e-011  3.247e-011   -10.407   -10.489    -0.081     (0)  
C(-4)        7.302e-015
   CH4            7.302e-015  7.381e-015   -14.137   -14.132     0.005     32.22
C(4)         1.969e-002
   HCO3-          1.054e-002  8.781e-003    -1.977    -2.056    -0.079     25.57
   CO3-2          7.829e-003  3.767e-003    -2.106    -2.424    -0.318     -0.92
   NaHCO3         7.018e-004  7.095e-004    -3.154    -3.149     0.005     19.41
   NaCO3-         5.986e-004  4.986e-004    -3.223    -3.302    -0.079      2.29
   CaCO3          1.030e-005  1.041e-005    -4.987    -4.983     0.005    -12.64
   CO2            2.335e-006  2.360e-006    -5.632    -5.627     0.005     30.17
   BaCO3          3.304e-007  3.340e-007    -6.481    -6.476     0.005     -8.92
   CaHCO3+        2.198e-007  1.840e-007    -6.658    -6.735    -0.077     10.63
   BaHCO3+        2.600e-008  2.146e-008    -7.585    -7.668    -0.083     (0)  
   FeCO3          4.641e-009  4.692e-009    -8.333    -8.329     0.005     (0)  
   FeHCO3+        7.595e-011  6.270e-011   -10.119   -10.203    -0.083     (0)  
Ca           1.408e-005
   CaCO3          1.030e-005  1.041e-005    -4.987    -4.983     0.005    -12.64
   Ca+2           3.206e-006  1.546e-006    -5.494    -5.811    -0.317    -15.62
   CaSO4          3.549e-007  3.588e-007    -6.450    -6.445     0.005      8.45
   CaHCO3+        2.198e-007  1.840e-007    -6.658    -6.735    -0.077     10.63
   CaOH+          1.880e-009  1.552e-009    -8.726    -8.809    -0.083     (0)  
   CaHSO4+        5.715e-016  4.718e-016   -15.243   -15.326    -0.083     (0)  
Cl           3.000e-003
   Cl-            3.000e-003  2.458e-003    -2.523    -2.609    -0.087     18.51
   FeCl+          2.134e-013  1.762e-013   -12.671   -12.754    -0.083     (0)  
   FeCl+2         1.978e-030  9.372e-031   -29.704   -30.028    -0.324     (0)  
   FeCl2+         1.061e-032  8.804e-033   -31.974   -32.055    -0.081     (0)  
   FeCl3          2.140e-036  2.164e-036   -35.670   -35.665     0.005     (0)  
Fe(2)        5.025e-009
   FeCO3          4.641e-009  4.692e-009    -8.333    -8.329     0.005     (0)  
   FeOH+          1.728e-010  1.434e-010    -9.762    -9.843    -0.081     (0)  
   Fe+2           1.056e-010  5.193e-011    -9.976   -10.285    -0.308    -19.17
   FeHCO3+        7.595e-011  6.270e-011   -10.119   -10.203    -0.083     (0)  
   FeSO4          1.413e-011  1.428e-011   -10.850   -10.845     0.005     (0)  
   Fe(OH)2        1.120e-011  1.132e-011   -10.951   -10.946     0.005     (0)  
   Fe(OH)3-       3.217e-012  2.669e-012   -11.493   -11.574    -0.081     (0)  
   FeCl+          2.134e-013  1.762e-013   -12.671   -12.754    -0.083     (0)  
   FeHSO4+        1.919e-020  1.584e-020   -19.717   -19.800    -0.083     (0)  
   Fe(HS)2        1.569e-025  1.586e-025   -24.804   -24.800     0.005     (0)  
   Fe(HS)3-       3.874e-035  3.198e-035   -34.412   -34.495    -0.083     (0)  
Fe(3)        1.189e-011
   Fe(OH)4-       1.059e-011  8.819e-012   -10.975   -11.055    -0.079     (0)  
   Fe(OH)3        1.298e-012  1.312e-012   -11.887   -11.882     0.005     (0)  
   Fe(OH)2+       1.633e-015  1.360e-015   -14.787   -14.867    -0.079     (0)  
   FeOH+2         1.189e-021  5.635e-022   -20.925   -21.249    -0.324     (0)  
   FeSO4+         2.251e-028  1.867e-028   -27.648   -27.729    -0.081     (0)  
   Fe+3           4.332e-029  1.081e-029   -28.363   -28.966    -0.603     (0)  
   Fe(SO4)2-      7.131e-030  5.887e-030   -29.147   -29.230    -0.083     (0)  
   FeCl+2         1.978e-030  9.372e-031   -29.704   -30.028    -0.324     (0)  
   FeCl2+         1.061e-032  8.804e-033   -31.974   -32.055    -0.081     (0)  
   FeCl3          2.140e-036  2.164e-036   -35.670   -35.665     0.005     (0)  
   FeHSO4+2       1.783e-037  8.280e-038   -36.749   -37.082    -0.333     (0)  
   Fe2(OH)2+4     1.500e-040  0.000e+000   -39.824   -41.156    -1.332     (0)  
   Fe3(OH)4+5     0.000e+000  0.000e+000   -51.818   -53.900    -2.082     (0)  
H(0)         9.333e-012
   H2             4.667e-012  4.718e-012   -11.331   -11.326     0.005     28.47
Na           3.797e-002
   Na+            3.642e-002  3.019e-002    -1.439    -1.520    -0.081      0.03
   NaHCO3         7.018e-004  7.095e-004    -3.154    -3.149     0.005     19.41
   NaCO3-         5.986e-004  4.986e-004    -3.223    -3.302    -0.079      2.29
   NaSO4-         2.572e-004  2.142e-004    -3.590    -3.669    -0.079     16.85
   NaOH           2.652e-016  2.680e-016   -15.577   -15.572     0.005     (0)  
O(0)         0.000e+000
   O2             0.000e+000  0.000e+000   -68.415   -68.410     0.005     30.31
S(-2)        8.909e-013
   HS-            8.862e-013  7.235e-013   -12.052   -12.141    -0.088     21.06
   S-2            4.001e-015  1.896e-015   -14.398   -14.722    -0.324     (0)  
   H2S            7.427e-016  7.508e-016   -15.129   -15.125     0.005     36.69
   Fe(HS)2        1.569e-025  1.586e-025   -24.804   -24.800     0.005     (0)  
   Fe(HS)3-       3.874e-035  3.198e-035   -34.412   -34.495    -0.083     (0)  
S(6)         3.254e-003
   SO4-2          2.997e-003  1.414e-003    -2.523    -2.850    -0.326     14.34
   NaSO4-         2.572e-004  2.142e-004    -3.590    -3.669    -0.079     16.85
   CaSO4          3.549e-007  3.588e-007    -6.450    -6.445     0.005      8.45
   BaSO4          1.110e-007  1.123e-007    -6.955    -6.950     0.005     (0)  
   HSO4-          2.255e-011  1.862e-011   -10.647   -10.730    -0.083     40.11
   FeSO4          1.413e-011  1.428e-011   -10.850   -10.845     0.005     (0)  
   CaHSO4+        5.715e-016  4.718e-016   -15.243   -15.326    -0.083     (0)  
   FeHSO4+        1.919e-020  1.584e-020   -19.717   -19.800    -0.083     (0)  
   FeSO4+         2.251e-028  1.867e-028   -27.648   -27.729    -0.081     (0)  
   Fe(SO4)2-      7.131e-030  5.887e-030   -29.147   -29.230    -0.083     (0)  
   FeHSO4+2       1.783e-037  8.280e-038   -36.749   -37.082    -0.333     (0)  

------------------------------Saturation indices-------------------------------

	Phase               SI   log IAP   log K(303 K, 300 atm)

	Anhydrite        -4.57     -8.66   -4.09  CaSO4
	Aragonite        -0.13     -8.23   -8.11  CaCO3
	Barite            0.00     -9.65   -9.65  BaSO4
	Calcite          -0.00     -8.23   -8.23  CaCO3
	CH4(g)          -11.54    -14.13   -2.60  CH4
	CO2(g)           -4.21     -5.63   -1.42  CO2
	Fe(OH)3(a)       -4.33      0.38    4.71  Fe(OH)3
	FeS(ppt)         -9.13    -12.64   -3.52  FeS
	Goethite          1.64      0.38   -1.26  FeOOH
	Gypsum           -4.28     -8.66   -4.38  CaSO4:2H2O
	H2(g)            -8.21    -11.33   -3.11  H2
	H2O(g)           -1.28     -0.00    1.28  H2O
	H2S(g)          -14.24    -21.92   -7.68  H2S
	Halite           -5.75     -4.13    1.62  NaCl
	Hematite          5.22      0.76   -4.46  Fe2O3
	Mackinawite      -8.39    -12.64   -4.25  FeS
	Melanterite     -10.36    -13.14   -2.78  FeSO4:7H2O
	O2(g)           -65.30    -68.41   -3.11  O2
	Pyrite           -8.91    -26.56  -17.65  FeS2
	Siderite         -2.05    -12.71  -10.66  FeCO3
	Sulfur          -12.18     -7.12    5.07  S
	Witherite        -0.96     -9.22   -8.26  BaCO3


------------------
End of simulation.
------------------

-------------------------------------
Reading input data for simulation 19.
-------------------------------------

	DELETE
		-solution  -1--2	 	
		-equilibrium_phases	-1
			-2
		-exchange	-2--1
		-surface	-1
			-2
		-solid_solution
			-2
			-1
		-gas_phase	
			-2--1
		-kinetics	
				-1--2 -5
		-mix 		-5--1			
		-reaction	-5--1
		-temperature	-5--1
		-pressure	-5--1
	END
------------------
End of simulation.
------------------

-------------------------------------
Reading input data for simulation 20.
-------------------------------------

	DUMP
		-all
	END
------------------
End of simulation.
------------------

-------------------------------------
Reading input data for simulation 21.
-------------------------------------

	SOLUTION_MODIFY       1 New soln description
	  -totals
	    Cl   0.0020000000000003
	    H(0)   1.4155655514601e-025
	    Na   0.0020000000000003
	EQUILIBRIUM_PHASES_MODIFY       1 New pp description
	  -component               Barite
	    -moles                 20
	    -dissolve_only         1
	  -component               Calcite
	    -moles                 20
	    -dissolve_only         1
	EXCHANGE_MODIFY       1 New ex description
	  -pitzer_exchange_gammas 1
	  -component              X
	    -totals
	      Na   3.0000000058717
	      X   3.0000000058717
	  -component               Y
	    -la                    2.0000000302372
	    -charge_balance        0
	    -phase_proportion              0
	    -formula_z                     0
	    -totals
	      Na   2.0000000058717
	      X   2.0000000058717
	SURFACE_MODIFY      1 New surface def
	  -type 2
	  -dl_type 0
	  -sites_units 0
	  -only_counter_ions 0
	  -thickness 1e-008
	  -debye_lengths 0
	  -DDL_viscosity 1
	  -DDL_limit 0.8
	  -transport 0
	  -component	Hfo_s
	      -formula_z             0
	      -moles                 0
	      -la                    -0.11486188676541
	      -charge_balance        3.7853465372651e-005
	      -phase_proportion      0
	      -Dw                    0
	      -totals
	        H   0.02003785346547
	        Hfo_s   0.020000000000097
	        O   0.020000000000097
	  -charge_component 	Hfo
	      -specific_area         700
	      -grams                 1
	      -charge_balance        5.7853465372651e-005
	      -mass_water            0
	      -la_psi                0.55146269389617
	      -capacitance0          3
	      -capacitance1          5
	      -diffuse_layer_totals 
	SOLID_SOLUTIONS_MODIFY       1 New ss def
	  -solid_solution            Calcite
	      -a0                    0
	      -a1                    0
	      -ag0                   0
	      -ag1                   0
	      -miscibility           0
	      -xb1                   -6.2774385622042e+066
	      -xb2                   -6.2774385622042e+066
	      -component	calcite      
	        -moles   	0.2
	      -component	rhodochrosite 
	        -moles          0.2  
	  -solid_solution	Barite
	      -a0                    0
	      -a1                    0
	      -ag0                   0
	      -ag1                   0
	      -miscibility           0
	      -xb1                   -6.2774385622042e+066
	      -xb2                   -6.2774385622042e+066
	      -component 	Barite
	        -moles          0.2
	      -component	Gypsum
	        -moles          0.2      
	GAS_PHASE_MODIFY      1 New gas_phase def
	  -type               0
	  -total_p            1
	  -volume             1
	  -component 	CO2(g)
	  	-moles		2.4305508698401e-005
	  -component	N2(g)	
	       -moles		1e-5
	KINETICS_MODIFY       1 New kinetics def
	  -bad_step_max      200
	  -use_cvode         1
	  -cvode_steps       200
	  -cvode_order       5
	  -component           Calcite
	    -tol                   1e-009
	    -m                     0.9999999999991
	    -m0                    1
	    -moles                 8.9805940461929e-010
	    -namecoef
	      CaCO3   1
	      MgCO3   2
	    -d_params
	      1 1 1 1 
	  -totals         
	    C   8.9801193858101e-013
	    Ca   8.9801193858101e-013
	    O   2.694035815743e-012
	DUMP
		-solution 1
		-equilibrium 1
		-exchange 1
		-surface 1
		-solid_solution 1
		-gas_phase 1
		-kinetics  1
	END
------------------
End of simulation.
------------------

-------------------------------------
Reading input data for simulation 22.
-------------------------------------

-------------------------------
End of Run after 0.118 Seconds.
-------------------------------

