WARNING: Database file from DATABASE keyword is used; command line argument ignored.
   Input file: surf_related_warnings
  Output file: surf_related_warnings.out
Database file: ../database/phreeqc.dat

------------------
Reading data base.
------------------

	SOLUTION_MASTER_SPECIES
	SOLUTION_SPECIES
	PHASES
	EXCHANGE_MASTER_SPECIES
	EXCHANGE_SPECIES
	SURFACE_MASTER_SPECIES
	SURFACE_SPECIES
	RATES
	END
------------------------------------
Reading input data for simulation 1.
------------------------------------

	DATABASE ../database/phreeqc.dat
	EQUILIBRIUM_PHASES 1 
	 Goethite 0 .1 
	SOLUTION 1 
	 Na 1
	 Cl 1 
	SAVE solution 1
	USER_PRINT
	 10 print sys("Cl"), sys("H"), sys("H") - get(1)
	 20 put(sys("H"), 1)
	END
-------------------------------------------
Beginning of initial solution calculations.
-------------------------------------------

Initial solution 1.	

----------------------------------User print-----------------------------------

 1.0000e-003  1.1101e+002  1.1101e+002 

-----------------------------Solution composition------------------------------

	Elements           Molality       Moles

	Cl               1.000e-003  1.000e-003
	Na               1.000e-003  1.000e-003

----------------------------Description of solution----------------------------

                                       pH  =   7.000    
                                       pe  =   4.000    
       Specific Conductance (uS/cm, 25 oC) = 123
                          Density (g/cm3)  =   0.99708
                               Volume (L)  =   1.00298
                        Activity of water  =   1.000
                           Ionic strength  =  1.000e-003
                       Mass of water (kg)  =  1.000e+000
                 Total alkalinity (eq/kg)  =  1.451e-009
                    Total carbon (mol/kg)  =  0.000e+000
                       Total CO2 (mol/kg)  =  0.000e+000
                      Temperature (deg C)  =  25.00
                  Electrical balance (eq)  = -1.451e-009
 Percent error, 100*(Cat-|An|)/(Cat+|An|)  =  -0.00
                               Iterations  =   3
                                  Total H  = 1.110124e+002
                                  Total O  = 5.550622e+001

----------------------------Distribution of species----------------------------

                                               Log       Log       Log    mole V
   Species          Molality    Activity  Molality  Activity     Gamma   cm3/mol

   OH-            1.049e-007  1.012e-007    -6.979    -6.995    -0.016     -4.11
   H+             1.035e-007  1.000e-007    -6.985    -7.000    -0.015      0.00
   H2O            5.551e+001  1.000e+000     1.744    -0.000     0.000     18.07
Cl           1.000e-003
   Cl-            1.000e-003  9.649e-004    -3.000    -3.016    -0.016     18.07
H(0)         1.416e-025
   H2             7.078e-026  7.079e-026   -25.150   -25.150     0.000     28.61
Na           1.000e-003
   Na+            1.000e-003  9.652e-004    -3.000    -3.015    -0.015     -1.39
   NaOH           9.767e-021  9.769e-021   -20.010   -20.010     0.000     (0)  
O(0)         0.000e+000
   O2             0.000e+000  0.000e+000   -42.080   -42.080     0.000     30.40

------------------------------Saturation indices-------------------------------

	Phase               SI   log IAP   log K(298 K,   1 atm)

	H2(g)           -22.05    -25.15   -3.10  H2
	H2O(g)           -1.50     -0.00    1.50  H2O
	Halite           -7.60     -6.03    1.57  NaCl
	O2(g)           -39.19    -42.08   -2.89  O2


-----------------------------------------
Beginning of batch-reaction calculations.
-----------------------------------------

Reaction step 1.

WARNING: Maximum iterations exceeded, 100

WARNING: Numerical method failed with this set of convergence parameters.

WARNING: Trying smaller step size, pe step size 10, 5 ... 

WARNING: Maximum iterations exceeded, 200

WARNING: Numerical method failed with this set of convergence parameters.

WARNING: Trying reduced tolerance 1e-016 ...

Using solution 1.	
Using pure phase assemblage 1.	

----------------------------------User print-----------------------------------

 1.0000e-003  1.1111e+002  1.0000e-001 

-------------------------------Phase assemblage--------------------------------

                                                      Moles in assemblage
Phase               SI  log IAP  log K(T, P)   Initial       Final       Delta

Goethite         -0.00    -1.00     -1.00   1.000e-001  1.000e-001  9.995e-011

-----------------------------Solution composition------------------------------

	Elements           Molality       Moles

	Cl               1.000e-003  1.000e-003
	Fe               5.132e-014  5.132e-014
	Na               1.000e-003  1.000e-003

----------------------------Description of solution----------------------------

                                       pH  =   7.000      Charge balance
                                       pe  =   5.946      Adjusted to redox equilibrium
       Specific Conductance (uS/cm, 25 oC) = 123
                          Density (g/cm3)  =   0.99708
                               Volume (L)  =   1.00298
                        Activity of water  =   1.000
                           Ionic strength  =  1.000e-003
                       Mass of water (kg)  =  1.000e+000
                 Total alkalinity (eq/kg)  =  1.451e-009
                    Total carbon (mol/kg)  =  0.000e+000
                       Total CO2 (mol/kg)  =  0.000e+000
                      Temperature (deg C)  =  25.00
                  Electrical balance (eq)  = -1.451e-009
 Percent error, 100*(Cat-|An|)/(Cat+|An|)  =  -0.00
                               Iterations  =  14
                                  Total H  = 1.110124e+002
                                  Total O  = 5.550622e+001

----------------------------Distribution of species----------------------------

                                               Log       Log       Log    mole V
   Species          Molality    Activity  Molality  Activity     Gamma   cm3/mol

   OH-            1.049e-007  1.012e-007    -6.979    -6.995    -0.016     -4.11
   H+             1.035e-007  1.000e-007    -6.985    -7.000    -0.015      0.00
   H2O            5.551e+001  1.000e+000     1.744    -0.000     0.000     18.07
Cl           1.000e-003
   Cl-            1.000e-003  9.649e-004    -3.000    -3.016    -0.016     18.07
   FeCl+          1.635e-018  1.578e-018   -17.786   -17.802    -0.015     (0)  
   FeCl+2         3.356e-024  2.914e-024   -23.474   -23.535    -0.061     (0)  
   FeCl2+         1.301e-026  1.256e-026   -25.886   -25.901    -0.015     (0)  
   FeCl3          1.212e-030  1.212e-030   -29.917   -29.917     0.000     (0)  
Fe(2)        1.368e-015
   Fe+2           1.362e-015  1.185e-015   -14.866   -14.926    -0.061    -22.14
   FeOH+          3.881e-018  3.746e-018   -17.411   -17.426    -0.015     (0)  
   FeCl+          1.635e-018  1.578e-018   -17.786   -17.802    -0.015     (0)  
   Fe(OH)2        3.187e-022  3.188e-022   -21.497   -21.496     0.000     (0)  
   Fe(OH)3-       1.227e-025  1.184e-025   -24.911   -24.926    -0.015     (0)  
Fe(3)        4.995e-014
   Fe(OH)3        2.754e-014  2.754e-014   -13.560   -13.560     0.000     (0)  
   Fe(OH)2+       2.214e-014  2.138e-014   -13.655   -13.670    -0.015     (0)  
   Fe(OH)4-       2.602e-016  2.512e-016   -15.585   -15.600    -0.015     (0)  
   FeOH+2         7.436e-018  6.457e-018   -17.129   -17.190    -0.061     (0)  
   Fe+3           1.358e-022  1.000e-022   -21.867   -22.000    -0.133     (0)  
   FeCl+2         3.356e-024  2.914e-024   -23.474   -23.535    -0.061     (0)  
   FeCl2+         1.301e-026  1.256e-026   -25.886   -25.901    -0.015     (0)  
   FeCl3          1.212e-030  1.212e-030   -29.917   -29.917     0.000     (0)  
   Fe2(OH)2+4     1.985e-033  1.122e-033   -32.702   -32.950    -0.248     (0)  
   Fe3(OH)4+5     0.000e+000  0.000e+000   -43.913   -44.300    -0.387     (0)  
H(0)         1.811e-029
   H2             9.057e-030  9.059e-030   -29.043   -29.043     0.000     28.61
Na           1.000e-003
   Na+            1.000e-003  9.652e-004    -3.000    -3.015    -0.015     -1.39
   NaOH           9.767e-021  9.769e-021   -20.010   -20.010     0.000     (0)  
O(0)         1.016e-034
   O2             5.078e-035  5.079e-035   -34.294   -34.294     0.000     30.40

------------------------------Saturation indices-------------------------------

	Phase               SI   log IAP   log K(298 K,   1 atm)

	Fe(OH)3(a)       -5.89     -1.00    4.89  Fe(OH)3
	Goethite         -0.00     -1.00   -1.00  FeOOH
	H2(g)           -25.94    -29.04   -3.10  H2
	H2O(g)           -1.50     -0.00    1.50  H2O
	Halite           -7.60     -6.03    1.57  NaCl
	Hematite          2.01     -2.00   -4.01  Fe2O3
	O2(g)           -31.40    -34.29   -2.89  O2


------------------
End of simulation.
------------------

------------------------------------
Reading input data for simulation 2.
------------------------------------

	SURFACE 1 
	 Hfo_wOH Goethite 1e-2 2e3 
	 donnan # can be added, wonderful! 
	 equilibrate 1
	END
------------------------------------------------------
Beginning of initial surface-composition calculations.
------------------------------------------------------

Surface 1.	

Hfo           
	-5.834e-015  Surface + diffuse layer charge, eq
	 1.234e-005  Surface charge, eq
	 5.953e-003  sigma, C/m**2
	 6.430e-002  psi, V
	-2.503e+000  -F*psi/RT
	 8.186e-002  exp(-F*psi/RT)
	 2.000e+003  specific area, m**2/mol Goethite
	 2.000e+002  m**2 for  1.000e-001 moles of Goethite

	Water in diffuse layer: 2.000e-003 kg, 100.0% of total DDL-water.

	Total moles in diffuse layer (excluding water), Donnan calculation 

	Element       	     Moles
	Cl            	 1.2654e-005
	Fe            	 6.5432e-017
	H             	 1.3601e-009
	Na            	 3.1611e-007
	O             	 1.3274e-009

Hfo_w         
	 1.000e-003  moles	[0.01 mol/(mol Goethite)]
	                                   Mole                     Log
	Species               Moles    Fraction    Molality    Molality

	Hfo_wOH          7.674e-004       0.767  7.674e-004      -3.115
	Hfo_wOH2+        1.225e-004       0.122  1.225e-004      -3.912
	Hfo_wO-          1.101e-004       0.110  1.101e-004      -3.958
	Hfo_wOFe+        7.792e-016       0.000  7.792e-016     -15.108
	Hfo_wOFeOH       2.562e-016       0.000  2.562e-016     -15.591

------------------
End of simulation.
------------------

------------------------------------
Reading input data for simulation 3.
------------------------------------

	USE solution 1
	USE surface 1
	USE equilibrium_phases 1
	Reaction
		HCl 1
		5
	END 
-----------------------------------------
Beginning of batch-reaction calculations.
-----------------------------------------

Reaction step 1.

Using solution 1.	Solution after simulation 1.
Using surface 1.	
Using pure phase assemblage 1.	
Using reaction 1.	

Reaction 1.	

	 5.000e+000 moles of the following reaction have been added:

	                 Relative
	Reactant            moles

	HCl                  1.00000

	                 Relative
	Element             moles
	Cl                   1.00000
	H                    1.00000

----------------------------------User print-----------------------------------

 5.0010e+000  1.1611e+002  5.0000e+000 

-------------------------------Phase assemblage--------------------------------

                                                      Moles in assemblage
Phase               SI  log IAP  log K(T, P)   Initial       Final       Delta

Goethite         -5.17    -6.17     -1.00   1.000e-001           0 -1.000e-001

------------------------------Surface composition------------------------------

Hfo           
	-1.448e-021  Surface + diffuse layer charge, eq
	 3.557e-026  Surface charge, eq
	undefined  sigma, C/m**2
	 2.558e-002  psi, V
	-9.956e-001  -F*psi/RT
	 3.695e-001  exp(-F*psi/RT)
	 2.000e+003  specific area, m**2/mol Goethite
	 0.000e+000  m**2 for  0.000e+000 moles of Goethite

	Water in diffuse layer: 0.000e+000 kg,  0.0% of total DDL-water.

	Total moles in diffuse layer (excluding water), Donnan calculation 

	Element       	     Moles
	Cl            	 5.0010e-012
	Fe            	 1.0000e-013
	H             	 4.7000e-012
	Na            	 1.0003e-015
	O             	 5.3697e-019

Hfo_w         
	 0.000e+000  moles	[0.01 mol/(mol Goethite)]
	                                   Mole                     Log
	Species               Moles    Fraction    Molality    Molality

	Hfo_wOH2+        3.557e-026       0.000  3.544e-026     -25.450
	Hfo_wOH          1.488e-033       0.000  1.482e-033     -32.829
	Hfo_wO-          1.425e-042       0.000  1.420e-042     -41.848
	Hfo_wOFe+        1.079e-048       0.000  1.075e-048     -47.969
	Hfo_wOFeOH       1.981e-057       0.000  1.974e-057     -56.705

-----------------------------Solution composition------------------------------

	Elements           Molality       Moles

	Cl               4.983e+000  5.001e+000
	Fe               9.964e-002  1.000e-001
	Na               9.967e-004  1.000e-003

----------------------------Description of solution----------------------------

                                       pH  =  -0.521      Charge balance
                                       pe  =  19.770      Adjusted to redox equilibrium
       Specific Conductance (uS/cm, 25 oC) = 883671
                          Density (g/cm3)  =   1.08031
                               Volume (L)  =   1.10269
                        Activity of water  =   0.837
                           Ionic strength  =  4.841e+000
                       Mass of water (kg)  =  1.004e+000
                 Total alkalinity (eq/kg)  = -4.882e+000
                    Total carbon (mol/kg)  =  0.000e+000
                       Total CO2 (mol/kg)  =  0.000e+000
                      Temperature (deg C)  =  25.00
                  Electrical balance (eq)  = -1.448e-009
 Percent error, 100*(Cat-|An|)/(Cat+|An|)  =  -0.00
                               Iterations  =   1
                                  Total H  = 1.161124e+002
                                  Total O  = 5.570622e+001

----------------------------Distribution of species----------------------------

                                               Log       Log       Log    mole V
   Species          Molality    Activity  Molality  Activity     Gamma   cm3/mol

   H+             4.683e+000  3.319e+000     0.671     0.521    -0.150      0.00
   OH-            5.307e-015  2.552e-015   -14.275   -14.593    -0.318      3.21
   H2O            5.551e+001  8.369e-001     1.744    -0.077     0.000     18.07
Cl           4.983e+000
   Cl-            4.810e+000  2.849e+000     0.682     0.455    -0.227     19.91
   FeCl2+         6.703e-002  3.829e-002    -1.174    -1.417    -0.243     (0)  
   FeCl+2         2.826e-002  3.008e-003    -1.549    -2.522    -0.973     (0)  
   FeCl3          3.579e-003  1.091e-002    -2.446    -1.962     0.484     (0)  
   FeCl+          9.967e-012  2.446e-011   -11.001   -10.611     0.390     (0)  
Fe(2)        5.311e-011
   Fe+2           4.314e-011  6.220e-012   -10.365   -11.206    -0.841    -18.16
   FeCl+          9.967e-012  2.446e-011   -11.001   -10.611     0.390     (0)  
   FeOH+          8.683e-022  4.960e-022   -21.061   -21.305    -0.243     (0)  
   Fe(OH)2        3.492e-034  1.064e-033   -33.457   -32.973     0.484     (0)  
   Fe(OH)3-       0.000e+000  0.000e+000   -43.758   -44.001    -0.243     (0)  
Fe(3)        9.964e-002
   FeCl2+         6.703e-002  3.829e-002    -1.174    -1.417    -0.243     (0)  
   FeCl+2         2.826e-002  3.008e-003    -1.549    -2.522    -0.973     (0)  
   FeCl3          3.579e-003  1.091e-002    -2.446    -1.962     0.484     (0)  
   Fe+3           7.749e-004  3.496e-005    -3.111    -4.456    -1.346     (0)  
   FeOH+2         5.346e-007  5.691e-008    -6.272    -7.245    -0.973     (0)  
   Fe(OH)2+       8.049e-012  4.752e-012   -11.094   -11.323    -0.229     (0)  
   Fe(OH)3        5.064e-020  1.544e-019   -19.296   -18.811     0.484     (0)  
   Fe2(OH)2+4     5.017e-020  8.717e-014   -19.300   -13.060     6.240     (0)  
   Fe(OH)4-       6.013e-029  3.550e-029   -28.221   -28.450    -0.229     (0)  
   Fe3(OH)4+5     1.539e-032  8.654e-023   -31.813   -22.063     9.750     (0)  
H(0)         0.000e+000
   H2             0.000e+000  0.000e+000   -42.132   -41.647     0.484     28.61
Na           9.967e-004
   Na+            9.967e-004  1.292e-003    -3.001    -2.889     0.113      1.07
   NaOH           1.082e-028  3.298e-028   -27.966   -27.482     0.484     (0)  
O(0)         3.778e-010
   O2             1.889e-010  5.758e-010    -9.724    -9.240     0.484     30.40

------------------------------Saturation indices-------------------------------

	Phase               SI   log IAP   log K(298 K,   1 atm)

	Fe(OH)3(a)      -11.14     -6.25    4.89  Fe(OH)3
	Goethite         -5.17     -6.17   -1.00  FeOOH
	H2(g)           -38.55    -41.65   -3.10  H2
	H2O(g)           -1.58     -0.08    1.50  H2O
	Halite           -4.00     -2.43    1.57  NaCl
	Hematite         -8.26    -12.27   -4.01  Fe2O3
	O2(g)            -6.35     -9.24   -2.89  O2


------------------
End of simulation.
------------------

------------------------------------
Reading input data for simulation 4.
------------------------------------

	EQUILIBRIUM_PHASES 1 
	 Goethite 0 .1 
	SOLUTION 1 
	 Na 1
	 Cl 1 
	SAVE solution 1
	USER_PRINT
	 10 print sys("Cl"), sys("H"), sys("H") - get(1)
	 20 put(sys("H"), 1)
	END
-------------------------------------------
Beginning of initial solution calculations.
-------------------------------------------

Initial solution 1.	

----------------------------------User print-----------------------------------

 1.0000e-003  1.1101e+002 -5.1000e+000 

-----------------------------Solution composition------------------------------

	Elements           Molality       Moles

	Cl               1.000e-003  1.000e-003
	Na               1.000e-003  1.000e-003

----------------------------Description of solution----------------------------

                                       pH  =   7.000    
                                       pe  =   4.000    
       Specific Conductance (uS/cm, 25 oC) = 123
                          Density (g/cm3)  =   0.99708
                               Volume (L)  =   1.00298
                        Activity of water  =   1.000
                           Ionic strength  =  1.000e-003
                       Mass of water (kg)  =  1.000e+000
                 Total alkalinity (eq/kg)  =  1.451e-009
                    Total carbon (mol/kg)  =  0.000e+000
                       Total CO2 (mol/kg)  =  0.000e+000
                      Temperature (deg C)  =  25.00
                  Electrical balance (eq)  = -1.451e-009
 Percent error, 100*(Cat-|An|)/(Cat+|An|)  =  -0.00
                               Iterations  =   3
                                  Total H  = 1.110124e+002
                                  Total O  = 5.550622e+001

----------------------------Distribution of species----------------------------

                                               Log       Log       Log    mole V
   Species          Molality    Activity  Molality  Activity     Gamma   cm3/mol

   OH-            1.049e-007  1.012e-007    -6.979    -6.995    -0.016     -4.11
   H+             1.035e-007  1.000e-007    -6.985    -7.000    -0.015      0.00
   H2O            5.551e+001  1.000e+000     1.744    -0.000     0.000     18.07
Cl           1.000e-003
   Cl-            1.000e-003  9.649e-004    -3.000    -3.016    -0.016     18.07
H(0)         1.416e-025
   H2             7.078e-026  7.079e-026   -25.150   -25.150     0.000     28.61
Na           1.000e-003
   Na+            1.000e-003  9.652e-004    -3.000    -3.015    -0.015     -1.39
   NaOH           9.767e-021  9.769e-021   -20.010   -20.010     0.000     (0)  
O(0)         0.000e+000
   O2             0.000e+000  0.000e+000   -42.080   -42.080     0.000     30.40

------------------------------Saturation indices-------------------------------

	Phase               SI   log IAP   log K(298 K,   1 atm)

	H2(g)           -22.05    -25.15   -3.10  H2
	H2O(g)           -1.50     -0.00    1.50  H2O
	Halite           -7.60     -6.03    1.57  NaCl
	O2(g)           -39.19    -42.08   -2.89  O2


-----------------------------------------
Beginning of batch-reaction calculations.
-----------------------------------------

Reaction step 1.

WARNING: Maximum iterations exceeded, 100

WARNING: Numerical method failed with this set of convergence parameters.

WARNING: Trying smaller step size, pe step size 10, 5 ... 

WARNING: Maximum iterations exceeded, 200

WARNING: Numerical method failed with this set of convergence parameters.

WARNING: Trying reduced tolerance 1e-016 ...

Using solution 1.	
Using pure phase assemblage 1.	

----------------------------------User print-----------------------------------

 1.0000e-003  1.1111e+002  1.0000e-001 

-------------------------------Phase assemblage--------------------------------

                                                      Moles in assemblage
Phase               SI  log IAP  log K(T, P)   Initial       Final       Delta

Goethite         -0.00    -1.00     -1.00   1.000e-001  1.000e-001  9.995e-011

-----------------------------Solution composition------------------------------

	Elements           Molality       Moles

	Cl               1.000e-003  1.000e-003
	Fe               5.132e-014  5.132e-014
	Na               1.000e-003  1.000e-003

----------------------------Description of solution----------------------------

                                       pH  =   7.000      Charge balance
                                       pe  =   5.946      Adjusted to redox equilibrium
       Specific Conductance (uS/cm, 25 oC) = 123
                          Density (g/cm3)  =   0.99708
                               Volume (L)  =   1.00298
                        Activity of water  =   1.000
                           Ionic strength  =  1.000e-003
                       Mass of water (kg)  =  1.000e+000
                 Total alkalinity (eq/kg)  =  1.451e-009
                    Total carbon (mol/kg)  =  0.000e+000
                       Total CO2 (mol/kg)  =  0.000e+000
                      Temperature (deg C)  =  25.00
                  Electrical balance (eq)  = -1.451e-009
 Percent error, 100*(Cat-|An|)/(Cat+|An|)  =  -0.00
                               Iterations  =  14
                                  Total H  = 1.110124e+002
                                  Total O  = 5.550622e+001

----------------------------Distribution of species----------------------------

                                               Log       Log       Log    mole V
   Species          Molality    Activity  Molality  Activity     Gamma   cm3/mol

   OH-            1.049e-007  1.012e-007    -6.979    -6.995    -0.016     -4.11
   H+             1.035e-007  1.000e-007    -6.985    -7.000    -0.015      0.00
   H2O            5.551e+001  1.000e+000     1.744    -0.000     0.000     18.07
Cl           1.000e-003
   Cl-            1.000e-003  9.649e-004    -3.000    -3.016    -0.016     18.07
   FeCl+          1.635e-018  1.578e-018   -17.786   -17.802    -0.015     (0)  
   FeCl+2         3.356e-024  2.914e-024   -23.474   -23.535    -0.061     (0)  
   FeCl2+         1.301e-026  1.256e-026   -25.886   -25.901    -0.015     (0)  
   FeCl3          1.212e-030  1.212e-030   -29.917   -29.917     0.000     (0)  
Fe(2)        1.368e-015
   Fe+2           1.362e-015  1.185e-015   -14.866   -14.926    -0.061    -22.14
   FeOH+          3.881e-018  3.746e-018   -17.411   -17.426    -0.015     (0)  
   FeCl+          1.635e-018  1.578e-018   -17.786   -17.802    -0.015     (0)  
   Fe(OH)2        3.187e-022  3.188e-022   -21.497   -21.496     0.000     (0)  
   Fe(OH)3-       1.227e-025  1.184e-025   -24.911   -24.926    -0.015     (0)  
Fe(3)        4.995e-014
   Fe(OH)3        2.754e-014  2.754e-014   -13.560   -13.560     0.000     (0)  
   Fe(OH)2+       2.214e-014  2.138e-014   -13.655   -13.670    -0.015     (0)  
   Fe(OH)4-       2.602e-016  2.512e-016   -15.585   -15.600    -0.015     (0)  
   FeOH+2         7.436e-018  6.457e-018   -17.129   -17.190    -0.061     (0)  
   Fe+3           1.358e-022  1.000e-022   -21.867   -22.000    -0.133     (0)  
   FeCl+2         3.356e-024  2.914e-024   -23.474   -23.535    -0.061     (0)  
   FeCl2+         1.301e-026  1.256e-026   -25.886   -25.901    -0.015     (0)  
   FeCl3          1.212e-030  1.212e-030   -29.917   -29.917     0.000     (0)  
   Fe2(OH)2+4     1.985e-033  1.122e-033   -32.702   -32.950    -0.248     (0)  
   Fe3(OH)4+5     0.000e+000  0.000e+000   -43.913   -44.300    -0.387     (0)  
H(0)         1.811e-029
   H2             9.057e-030  9.059e-030   -29.043   -29.043     0.000     28.61
Na           1.000e-003
   Na+            1.000e-003  9.652e-004    -3.000    -3.015    -0.015     -1.39
   NaOH           9.767e-021  9.769e-021   -20.010   -20.010     0.000     (0)  
O(0)         1.016e-034
   O2             5.078e-035  5.079e-035   -34.294   -34.294     0.000     30.40

------------------------------Saturation indices-------------------------------

	Phase               SI   log IAP   log K(298 K,   1 atm)

	Fe(OH)3(a)       -5.89     -1.00    4.89  Fe(OH)3
	Goethite         -0.00     -1.00   -1.00  FeOOH
	H2(g)           -25.94    -29.04   -3.10  H2
	H2O(g)           -1.50     -0.00    1.50  H2O
	Halite           -7.60     -6.03    1.57  NaCl
	Hematite          2.01     -2.00   -4.01  Fe2O3
	O2(g)           -31.40    -34.29   -2.89  O2


------------------
End of simulation.
------------------

------------------------------------
Reading input data for simulation 5.
------------------------------------

	SURFACE 1 
	 Hfo_w Goethite 1e-2 2e3 
	 donnan # can be added, wonderful! 
	 equilibrate 1
	END
WARNING: Suggest using master species formula in SURFACE 
	 for surface related to equilibrium_phase: Hfo_wOH.
------------------------------------------------------
Beginning of initial surface-composition calculations.
------------------------------------------------------

Surface 1.	

Hfo           
	-5.834e-015  Surface + diffuse layer charge, eq
	 1.234e-005  Surface charge, eq
	 5.953e-003  sigma, C/m**2
	 6.430e-002  psi, V
	-2.503e+000  -F*psi/RT
	 8.186e-002  exp(-F*psi/RT)
	 2.000e+003  specific area, m**2/mol Goethite
	 2.000e+002  m**2 for  1.000e-001 moles of Goethite

	Water in diffuse layer: 2.000e-003 kg, 100.0% of total DDL-water.

	Total moles in diffuse layer (excluding water), Donnan calculation 

	Element       	     Moles
	Cl            	 1.2654e-005
	Fe            	 6.5432e-017
	H             	 1.3601e-009
	Na            	 3.1611e-007
	O             	 1.3274e-009

Hfo_w         
	 1.000e-003  moles	[0.01 mol/(mol Goethite)]
	                                   Mole                     Log
	Species               Moles    Fraction    Molality    Molality

	Hfo_wOH          7.674e-004       0.767  7.674e-004      -3.115
	Hfo_wOH2+        1.225e-004       0.122  1.225e-004      -3.912
	Hfo_wO-          1.101e-004       0.110  1.101e-004      -3.958
	Hfo_wOFe+        7.792e-016       0.000  7.792e-016     -15.108
	Hfo_wOFeOH       2.562e-016       0.000  2.562e-016     -15.591

------------------
End of simulation.
------------------

------------------------------------
Reading input data for simulation 6.
------------------------------------

	USE solution 1
	USE surface 1
	USE equilibrium_phases 1
	Reaction
		HCl 1
		5
	END 
-----------------------------------------
Beginning of batch-reaction calculations.
-----------------------------------------

Reaction step 1.

Using solution 1.	Solution after simulation 4.
Using surface 1.	
Using pure phase assemblage 1.	
Using reaction 1.	

Reaction 1.	

	 5.000e+000 moles of the following reaction have been added:

	                 Relative
	Reactant            moles

	HCl                  1.00000

	                 Relative
	Element             moles
	Cl                   1.00000
	H                    1.00000

----------------------------------User print-----------------------------------

 5.0010e+000  1.1611e+002  5.0010e+000 

-------------------------------Phase assemblage--------------------------------

                                                      Moles in assemblage
Phase               SI  log IAP  log K(T, P)   Initial       Final       Delta

Goethite         -5.17    -6.17     -1.00   1.000e-001           0 -1.000e-001

------------------------------Surface composition------------------------------

Hfo           
	-1.450e-021  Surface + diffuse layer charge, eq
	 5.416e-026  Surface charge, eq
	undefined  sigma, C/m**2
	 3.455e-002  psi, V
	-1.345e+000  -F*psi/RT
	 2.606e-001  exp(-F*psi/RT)
	 2.000e+003  specific area, m**2/mol Goethite
	 0.000e+000  m**2 for  0.000e+000 moles of Goethite

	Water in diffuse layer: 0.000e+000 kg,  0.0% of total DDL-water.

	Total moles in diffuse layer (excluding water), Donnan calculation 

	Element       	     Moles
	Cl            	 5.0010e-012
	Fe            	 1.0000e-013
	H             	 4.7000e-012
	Na            	 1.0003e-015
	O             	 5.0054e-016

Hfo_w         
	 0.000e+000  moles	[0.01 mol/(mol Goethite)]
	                                   Mole                     Log
	Species               Moles    Fraction    Molality    Molality

	Hfo_wOH2+        5.416e-026       0.000  5.396e-026     -25.268
	Hfo_wOH          3.211e-033       0.000  3.199e-033     -32.495
	Hfo_wO-          4.361e-042       0.000  4.346e-042     -41.362
	Hfo_wOFe+        4.846e-050       0.000  4.829e-050     -49.316
	Hfo_wOFeOH       1.262e-058       0.000  1.257e-058     -57.901

-----------------------------Solution composition------------------------------

	Elements           Molality       Moles

	Cl               4.983e+000  5.001e+000
	Fe               9.964e-002  1.000e-001
	Na               9.967e-004  1.000e-003

----------------------------Description of solution----------------------------

                                       pH  =  -0.521      Charge balance
                                       pe  =  21.300      Adjusted to redox equilibrium
       Specific Conductance (uS/cm, 25 oC) = 883667
                          Density (g/cm3)  =   1.08031
                               Volume (L)  =   1.10271
                        Activity of water  =   0.837
                           Ionic strength  =  4.841e+000
                       Mass of water (kg)  =  1.004e+000
                 Total alkalinity (eq/kg)  = -4.882e+000
                    Total carbon (mol/kg)  =  0.000e+000
                       Total CO2 (mol/kg)  =  0.000e+000
                      Temperature (deg C)  =  25.00
                  Electrical balance (eq)  = -1.451e-009
 Percent error, 100*(Cat-|An|)/(Cat+|An|)  =  -0.00
                               Iterations  =   1
                                  Total H  = 1.161134e+002
                                  Total O  = 5.570722e+001

----------------------------Distribution of species----------------------------

                                               Log       Log       Log    mole V
   Species          Molality    Activity  Molality  Activity     Gamma   cm3/mol

   H+             4.683e+000  3.319e+000     0.671     0.521    -0.150      0.00
   OH-            5.307e-015  2.552e-015   -14.275   -14.593    -0.318      3.21
   H2O            5.551e+001  8.369e-001     1.744    -0.077     0.000     18.07
Cl           4.983e+000
   Cl-            4.810e+000  2.849e+000     0.682     0.455    -0.227     19.91
   FeCl2+         6.703e-002  3.829e-002    -1.174    -1.417    -0.243     (0)  
   FeCl+2         2.826e-002  3.008e-003    -1.549    -2.522    -0.973     (0)  
   FeCl3          3.579e-003  1.091e-002    -2.446    -1.962     0.484     (0)  
   FeCl+          2.941e-013  7.219e-013   -12.531   -12.141     0.390     (0)  
Fe(2)        1.567e-012
   Fe+2           1.273e-012  1.835e-013   -11.895   -12.736    -0.841    -18.17
   FeCl+          2.941e-013  7.219e-013   -12.531   -12.141     0.390     (0)  
   FeOH+          2.562e-023  1.464e-023   -22.591   -22.835    -0.243     (0)  
   Fe(OH)2        1.030e-035  3.141e-035   -34.987   -34.503     0.484     (0)  
   Fe(OH)3-       0.000e+000  0.000e+000   -45.288   -45.531    -0.243     (0)  
Fe(3)        9.964e-002
   FeCl2+         6.703e-002  3.829e-002    -1.174    -1.417    -0.243     (0)  
   FeCl+2         2.826e-002  3.008e-003    -1.549    -2.522    -0.973     (0)  
   FeCl3          3.579e-003  1.091e-002    -2.446    -1.962     0.484     (0)  
   Fe+3           7.749e-004  3.496e-005    -3.111    -4.456    -1.346     (0)  
   FeOH+2         5.347e-007  5.691e-008    -6.272    -7.245    -0.973     (0)  
   Fe(OH)2+       8.049e-012  4.752e-012   -11.094   -11.323    -0.229     (0)  
   Fe(OH)3        5.064e-020  1.544e-019   -19.296   -18.811     0.484     (0)  
   Fe2(OH)2+4     5.018e-020  8.717e-014   -19.299   -13.060     6.240     (0)  
   Fe(OH)4-       6.013e-029  3.550e-029   -28.221   -28.450    -0.229     (0)  
   Fe3(OH)4+5     1.540e-032  8.655e-023   -31.813   -22.063     9.750     (0)  
H(0)         0.000e+000
   H2             0.000e+000  0.000e+000   -45.192   -44.708     0.484     28.61
Na           9.967e-004
   Na+            9.967e-004  1.292e-003    -3.001    -2.889     0.113      1.07
   NaOH           1.082e-028  3.298e-028   -27.966   -27.482     0.484     (0)  
O(0)         4.982e-004
   O2             2.491e-004  7.593e-004    -3.604    -3.120     0.484     30.40

------------------------------Saturation indices-------------------------------

	Phase               SI   log IAP   log K(298 K,   1 atm)

	Fe(OH)3(a)      -11.14     -6.25    4.89  Fe(OH)3
	Goethite         -5.17     -6.17   -1.00  FeOOH
	H2(g)           -41.61    -44.71   -3.10  H2
	H2O(g)           -1.58     -0.08    1.50  H2O
	Halite           -4.00     -2.43    1.57  NaCl
	Hematite         -8.26    -12.27   -4.01  Fe2O3
	O2(g)            -0.23     -3.12   -2.89  O2


------------------
End of simulation.
------------------

------------------------------------
Reading input data for simulation 7.
------------------------------------

	EQUILIBRIUM_PHASES 1 
	 Hematite 0 .1 
	SOLUTION 1 
	 Na 1
	 Cl 1 
	SAVE solution 1
	USER_PRINT
	 10 print sys("Cl"), sys("H"), sys("H") - get(1)
	 20 put(sys("H"), 1)
	END
-------------------------------------------
Beginning of initial solution calculations.
-------------------------------------------

Initial solution 1.	

----------------------------------User print-----------------------------------

 1.0000e-003  1.1101e+002 -5.1010e+000 

-----------------------------Solution composition------------------------------

	Elements           Molality       Moles

	Cl               1.000e-003  1.000e-003
	Na               1.000e-003  1.000e-003

----------------------------Description of solution----------------------------

                                       pH  =   7.000    
                                       pe  =   4.000    
       Specific Conductance (uS/cm, 25 oC) = 123
                          Density (g/cm3)  =   0.99708
                               Volume (L)  =   1.00298
                        Activity of water  =   1.000
                           Ionic strength  =  1.000e-003
                       Mass of water (kg)  =  1.000e+000
                 Total alkalinity (eq/kg)  =  1.451e-009
                    Total carbon (mol/kg)  =  0.000e+000
                       Total CO2 (mol/kg)  =  0.000e+000
                      Temperature (deg C)  =  25.00
                  Electrical balance (eq)  = -1.451e-009
 Percent error, 100*(Cat-|An|)/(Cat+|An|)  =  -0.00
                               Iterations  =   3
                                  Total H  = 1.110124e+002
                                  Total O  = 5.550622e+001

----------------------------Distribution of species----------------------------

                                               Log       Log       Log    mole V
   Species          Molality    Activity  Molality  Activity     Gamma   cm3/mol

   OH-            1.049e-007  1.012e-007    -6.979    -6.995    -0.016     -4.11
   H+             1.035e-007  1.000e-007    -6.985    -7.000    -0.015      0.00
   H2O            5.551e+001  1.000e+000     1.744    -0.000     0.000     18.07
Cl           1.000e-003
   Cl-            1.000e-003  9.649e-004    -3.000    -3.016    -0.016     18.07
H(0)         1.416e-025
   H2             7.078e-026  7.079e-026   -25.150   -25.150     0.000     28.61
Na           1.000e-003
   Na+            1.000e-003  9.652e-004    -3.000    -3.015    -0.015     -1.39
   NaOH           9.767e-021  9.769e-021   -20.010   -20.010     0.000     (0)  
O(0)         0.000e+000
   O2             0.000e+000  0.000e+000   -42.080   -42.080     0.000     30.40

------------------------------Saturation indices-------------------------------

	Phase               SI   log IAP   log K(298 K,   1 atm)

	H2(g)           -22.05    -25.15   -3.10  H2
	H2O(g)           -1.50     -0.00    1.50  H2O
	Halite           -7.60     -6.03    1.57  NaCl
	O2(g)           -39.19    -42.08   -2.89  O2


-----------------------------------------
Beginning of batch-reaction calculations.
-----------------------------------------

Reaction step 1.

Using solution 1.	
Using pure phase assemblage 1.	

----------------------------------User print-----------------------------------

 1.0000e-003  1.1101e+002            0 

-------------------------------Phase assemblage--------------------------------

                                                      Moles in assemblage
Phase               SI  log IAP  log K(T, P)   Initial       Final       Delta

Hematite          0.00    -4.01     -4.01   1.000e-001  1.000e-001 -2.466e-015

-----------------------------Solution composition------------------------------

	Elements           Molality       Moles

	Cl               1.000e-003  1.000e-003
	Fe               4.949e-015  4.949e-015
	Na               1.000e-003  1.000e-003

----------------------------Description of solution----------------------------

                                       pH  =   7.000      Charge balance
                                       pe  =  10.897      Adjusted to redox equilibrium
       Specific Conductance (uS/cm, 25 oC) = 123
                          Density (g/cm3)  =   0.99708
                               Volume (L)  =   1.00298
                        Activity of water  =   1.000
                           Ionic strength  =  1.000e-003
                       Mass of water (kg)  =  1.000e+000
                 Total alkalinity (eq/kg)  =  1.451e-009
                    Total carbon (mol/kg)  =  0.000e+000
                       Total CO2 (mol/kg)  =  0.000e+000
                      Temperature (deg C)  =  25.00
                  Electrical balance (eq)  = -1.451e-009
 Percent error, 100*(Cat-|An|)/(Cat+|An|)  =  -0.00
                               Iterations  =  35
                                  Total H  = 1.110124e+002
                                  Total O  = 5.550622e+001

----------------------------Distribution of species----------------------------

                                               Log       Log       Log    mole V
   Species          Molality    Activity  Molality  Activity     Gamma   cm3/mol

   OH-            1.049e-007  1.012e-007    -6.979    -6.995    -0.016     -4.11
   H+             1.035e-007  1.000e-007    -6.985    -7.000    -0.015      0.00
   H2O            5.551e+001  1.000e+000     1.744    -0.000     0.000     18.07
Cl           1.000e-003
   Cl-            1.000e-003  9.649e-004    -3.000    -3.016    -0.016     18.07
   FeCl+          1.817e-024  1.753e-024   -23.741   -23.756    -0.015     (0)  
   FeCl+2         3.325e-025  2.887e-025   -24.478   -24.540    -0.061     (0)  
   FeCl2+         1.289e-027  1.244e-027   -26.890   -26.905    -0.015     (0)  
   FeCl3          1.200e-031  1.201e-031   -30.921   -30.921     0.000     (0)  
Fe(2)        1.520e-021
   Fe+2           1.514e-021  1.316e-021   -20.820   -20.881    -0.061    -22.14
   FeOH+          4.311e-024  4.162e-024   -23.365   -23.381    -0.015     (0)  
   FeCl+          1.817e-024  1.753e-024   -23.741   -23.756    -0.015     (0)  
   Fe(OH)2        3.541e-028  3.542e-028   -27.451   -27.451     0.000     (0)  
   Fe(OH)3-       1.363e-031  1.316e-031   -30.865   -30.881    -0.015     (0)  
Fe(3)        4.949e-015
   Fe(OH)3        2.728e-015  2.729e-015   -14.564   -14.564     0.000     (0)  
   Fe(OH)2+       2.194e-015  2.118e-015   -14.659   -14.674    -0.015     (0)  
   Fe(OH)4-       2.578e-017  2.489e-017   -16.589   -16.604    -0.015     (0)  
   FeOH+2         7.368e-019  6.397e-019   -18.133   -18.194    -0.061     (0)  
   Fe+3           1.345e-023  9.909e-024   -22.871   -23.004    -0.133     (0)  
   FeCl+2         3.325e-025  2.887e-025   -24.478   -24.540    -0.061     (0)  
   FeCl2+         1.289e-027  1.244e-027   -26.890   -26.905    -0.015     (0)  
   FeCl3          1.200e-031  1.201e-031   -30.921   -30.921     0.000     (0)  
   Fe2(OH)2+4     1.949e-035  1.102e-035   -34.710   -34.958    -0.248     (0)  
   Fe3(OH)4+5     0.000e+000  0.000e+000   -46.925   -47.312    -0.387     (0)  
H(0)         2.278e-039
   H2             1.139e-039  1.139e-039   -38.944   -38.943     0.000     28.61
Na           1.000e-003
   Na+            1.000e-003  9.652e-004    -3.000    -3.015    -0.015     -1.39
   NaOH           9.767e-021  9.769e-021   -20.010   -20.010     0.000     (0)  
O(0)         6.424e-015
   O2             3.212e-015  3.213e-015   -14.493   -14.493     0.000     30.40

------------------------------Saturation indices-------------------------------

	Phase               SI   log IAP   log K(298 K,   1 atm)

	Fe(OH)3(a)       -6.90     -2.00    4.89  Fe(OH)3
	Goethite         -1.00     -2.00   -1.00  FeOOH
	H2(g)           -35.84    -38.94   -3.10  H2
	H2O(g)           -1.50     -0.00    1.50  H2O
	Halite           -7.60     -6.03    1.57  NaCl
	Hematite          0.00     -4.01   -4.01  Fe2O3
	O2(g)           -11.60    -14.49   -2.89  O2


------------------
End of simulation.
------------------

------------------------------------
Reading input data for simulation 8.
------------------------------------

	SURFACE 1 
	 Hfo_wOH Hematite 1e-2 2e3 
	 donnan # can be added, wonderful! 
	 equilibrate 1
	END
WARNING: Element H in sum of surface sites,
	 including Hfo_wOH * 0.01 mol sites/mol phase,
	 exceeds stoichiometry in the related phase Hematite, Fe2O3.
WARNING: The mismatch in stoichiometry may cause mass-balance errors or unwanted redox reactions.
------------------------------------------------------
Beginning of initial surface-composition calculations.
------------------------------------------------------

Surface 1.	

Hfo           
	-5.834e-015  Surface + diffuse layer charge, eq
	 1.234e-005  Surface charge, eq
	 5.953e-003  sigma, C/m**2
	 6.430e-002  psi, V
	-2.503e+000  -F*psi/RT
	 8.186e-002  exp(-F*psi/RT)
	 2.000e+003  specific area, m**2/mol Hematite
	 2.000e+002  m**2 for  1.000e-001 moles of Hematite

	Water in diffuse layer: 2.000e-003 kg, 100.0% of total DDL-water.

	Total moles in diffuse layer (excluding water), Donnan calculation 

	Element       	     Moles
	Cl            	 1.2654e-005
	Fe            	 6.4762e-018
	H             	 1.3601e-009
	Na            	 3.1611e-007
	O             	 1.3274e-009

Hfo_w         
	 1.000e-003  moles	[0.01 mol/(mol Hematite)]
	                                   Mole                     Log
	Species               Moles    Fraction    Molality    Molality

	Hfo_wOH          7.674e-004       0.767  7.674e-004      -3.115
	Hfo_wOH2+        1.225e-004       0.122  1.225e-004      -3.912
	Hfo_wO-          1.101e-004       0.110  1.101e-004      -3.958
	Hfo_wOFe+        8.657e-022       0.000  8.657e-022     -21.063
	Hfo_wOFeOH       2.846e-022       0.000  2.846e-022     -21.546

------------------
End of simulation.
------------------

------------------------------------
Reading input data for simulation 9.
------------------------------------

	USE solution 1
	USE surface 1
	USE equilibrium_phases 1
	Reaction
		HCl 1
		5
	END 
-----------------------------------------
Beginning of batch-reaction calculations.
-----------------------------------------

Reaction step 1.

Using solution 1.	Solution after simulation 7.
Using surface 1.	
Using pure phase assemblage 1.	
Using reaction 1.	

Reaction 1.	

	 5.000e+000 moles of the following reaction have been added:

	                 Relative
	Reactant            moles

	HCl                  1.00000

	                 Relative
	Element             moles
	Cl                   1.00000
	H                    1.00000

----------------------------------User print-----------------------------------

 5.0010e+000  1.1601e+002  5.0000e+000 

-------------------------------Phase assemblage--------------------------------

                                                      Moles in assemblage
Phase               SI  log IAP  log K(T, P)   Initial       Final       Delta

Hematite         -7.41   -11.42     -4.01   1.000e-001           0 -1.000e-001

------------------------------Surface composition------------------------------

Hfo           
	-1.446e-021  Surface + diffuse layer charge, eq
	 1.406e-025  Surface charge, eq
	undefined  sigma, C/m**2
	-1.729e-002  psi, V
	 6.729e-001  -F*psi/RT
	 1.960e+000  exp(-F*psi/RT)
	 2.000e+003  specific area, m**2/mol Hematite
	 0.000e+000  m**2 for  0.000e+000 moles of Hematite

	Water in diffuse layer: 0.000e+000 kg,  0.0% of total DDL-water.

	Total moles in diffuse layer (excluding water), Donnan calculation 

	Element       	     Moles
	Cl            	 5.0010e-012
	Fe            	 2.0000e-013
	H             	 4.4000e-012
	Na            	 1.0003e-015
	O             	 1.2360e-018

Hfo_w         
	 0.000e+000  moles	[0.01 mol/(mol Hematite)]
	                                   Mole                     Log
	Species               Moles    Fraction    Molality    Molality

	Hfo_wOH2+        1.406e-025       0.000  1.399e-025     -24.854
	Hfo_wOH          1.186e-033       0.000  1.179e-033     -32.928
	Hfo_wO-          2.290e-043       0.000  2.278e-043     -42.643
	Hfo_wOFe+        8.374e-048       0.000  8.329e-048     -47.079
	Hfo_wOFeOH       3.125e-057       0.000  3.108e-057     -56.507

-----------------------------Solution composition------------------------------

	Elements           Molality       Moles

	Cl               4.974e+000  5.001e+000
	Fe               1.989e-001  2.000e-001
	Na               9.949e-004  1.000e-003

----------------------------Description of solution----------------------------

                                       pH  =  -0.492      Charge balance
                                       pe  =  19.867      Adjusted to redox equilibrium
       Specific Conductance (uS/cm, 25 oC) = 839887
                          Density (g/cm3)  =   1.08845
                               Volume (L)  =   1.10096
                        Activity of water  =   0.843
                           Ionic strength  =  4.693e+000
                       Mass of water (kg)  =  1.005e+000
                 Total alkalinity (eq/kg)  = -4.774e+000
                    Total carbon (mol/kg)  =  0.000e+000
                       Total CO2 (mol/kg)  =  0.000e+000
                      Temperature (deg C)  =  25.00
                  Electrical balance (eq)  = -1.446e-009
 Percent error, 100*(Cat-|An|)/(Cat+|An|)  =  -0.00
                               Iterations  =   1
                                  Total H  = 1.160124e+002
                                  Total O  = 5.580622e+001

----------------------------Distribution of species----------------------------

                                               Log       Log       Log    mole V
   Species          Molality    Activity  Molality  Activity     Gamma   cm3/mol

   H+             4.376e+000  3.104e+000     0.641     0.492    -0.149      0.00
   OH-            5.701e-015  2.751e-015   -14.244   -14.561    -0.317      3.02
   H2O            5.551e+001  8.435e-001     1.744    -0.074     0.000     18.07
Cl           4.974e+000
   Cl-            4.630e+000  2.736e+000     0.666     0.437    -0.229     19.88
   FeCl2+         1.324e-001  7.578e-002    -0.878    -1.120    -0.242     (0)  
   FeCl+2         5.782e-002  6.201e-003    -1.238    -2.208    -0.970     (0)  
   FeCl3          7.035e-003  2.073e-002    -2.153    -1.683     0.469     (0)  
   FeCl+          1.724e-011  4.033e-011   -10.763   -10.394     0.369     (0)  
Fe(2)        9.091e-011
   Fe+2           7.367e-011  1.068e-011   -10.133   -10.971    -0.839    -18.24
   FeCl+          1.724e-011  4.033e-011   -10.763   -10.394     0.369     (0)  
   FeOH+          1.604e-021  9.179e-022   -20.795   -21.037    -0.242     (0)  
   Fe(OH)2        7.206e-034  2.123e-033   -33.142   -32.673     0.469     (0)  
   Fe(OH)3-       0.000e+000  0.000e+000   -43.426   -43.669    -0.242     (0)  
Fe(3)        1.989e-001
   FeCl2+         1.324e-001  7.578e-002    -0.878    -1.120    -0.242     (0)  
   FeCl+2         5.782e-002  6.201e-003    -1.238    -2.208    -0.970     (0)  
   FeCl3          7.035e-003  2.073e-002    -2.153    -1.683     0.469     (0)  
   Fe+3           1.653e-003  7.507e-005    -2.782    -4.125    -1.343     (0)  
   FeOH+2         1.228e-006  1.317e-007    -5.911    -6.880    -0.970     (0)  
   Fe(OH)2+       2.004e-011  1.185e-011   -10.698   -10.926    -0.228     (0)  
   Fe2(OH)2+4     5.795e-019  4.669e-013   -18.237   -12.331     5.906     (0)  
   Fe(OH)3        1.408e-019  4.149e-019   -18.851   -18.382     0.469     (0)  
   Fe(OH)4-       1.739e-028  1.028e-028   -27.760   -27.988    -0.228     (0)  
   Fe3(OH)4+5     6.832e-031  1.156e-021   -30.165   -20.937     9.228     (0)  
H(0)         0.000e+000
   H2             0.000e+000  0.000e+000   -42.369   -41.900     0.469     28.61
Na           9.949e-004
   Na+            9.949e-004  1.258e-003    -3.002    -2.900     0.102      1.03
   NaOH           1.174e-028  3.459e-028   -27.930   -27.461     0.469     (0)  
O(0)         1.269e-009
   O2             6.346e-010  1.870e-009    -9.197    -8.728     0.469     30.40

------------------------------Saturation indices-------------------------------

	Phase               SI   log IAP   log K(298 K,   1 atm)

	Fe(OH)3(a)      -10.71     -5.82    4.89  Fe(OH)3
	Goethite         -4.75     -5.75   -1.00  FeOOH
	H2(g)           -38.80    -41.90   -3.10  H2
	H2O(g)           -1.58     -0.07    1.50  H2O
	Halite           -4.03     -2.46    1.57  NaCl
	Hematite         -7.41    -11.42   -4.01  Fe2O3
	O2(g)            -5.84     -8.73   -2.89  O2


------------------
End of simulation.
------------------

-------------------------------------
Reading input data for simulation 10.
-------------------------------------

	SURFACE_MASTER_SPECIES
	Hfo_s Hfo_sO-
	SURFACE_SPECIES
	Hfo_sO- = Hfo_sO-
	log_k 0
	Hfo_sO- + H+ = Hfo_sOH
	log_k -100
	END
------------------
End of simulation.
------------------

-------------------------------------
Reading input data for simulation 11.
-------------------------------------

	EQUILIBRIUM_PHASES 1 
	 Goethite 0 .1 
	SOLUTION 1 
	 Na 1
	 Cl 1 
	SAVE solution 1
	USER_PRINT
	 10 print sys("Cl"), sys("H"), sys("H") - get(1)
	 20 put(sys("H"), 1)
	END
-------------------------------------------
Beginning of initial solution calculations.
-------------------------------------------

Initial solution 1.	

----------------------------------User print-----------------------------------

 1.0000e-003  1.1101e+002 -5.0000e+000 

-----------------------------Solution composition------------------------------

	Elements           Molality       Moles

	Cl               1.000e-003  1.000e-003
	Na               1.000e-003  1.000e-003

----------------------------Description of solution----------------------------

                                       pH  =   7.000    
                                       pe  =   4.000    
       Specific Conductance (uS/cm, 25 oC) = 123
                          Density (g/cm3)  =   0.99708
                               Volume (L)  =   1.00298
                        Activity of water  =   1.000
                           Ionic strength  =  1.000e-003
                       Mass of water (kg)  =  1.000e+000
                 Total alkalinity (eq/kg)  =  1.451e-009
                    Total carbon (mol/kg)  =  0.000e+000
                       Total CO2 (mol/kg)  =  0.000e+000
                      Temperature (deg C)  =  25.00
                  Electrical balance (eq)  = -1.451e-009
 Percent error, 100*(Cat-|An|)/(Cat+|An|)  =  -0.00
                               Iterations  =   3
                                  Total H  = 1.110124e+002
                                  Total O  = 5.550622e+001

----------------------------Distribution of species----------------------------

                                               Log       Log       Log    mole V
   Species          Molality    Activity  Molality  Activity     Gamma   cm3/mol

   OH-            1.049e-007  1.012e-007    -6.979    -6.995    -0.016     -4.11
   H+             1.035e-007  1.000e-007    -6.985    -7.000    -0.015      0.00
   H2O            5.551e+001  1.000e+000     1.744    -0.000     0.000     18.07
Cl           1.000e-003
   Cl-            1.000e-003  9.649e-004    -3.000    -3.016    -0.016     18.07
H(0)         1.416e-025
   H2             7.078e-026  7.079e-026   -25.150   -25.150     0.000     28.61
Na           1.000e-003
   Na+            1.000e-003  9.652e-004    -3.000    -3.015    -0.015     -1.39
   NaOH           9.767e-021  9.769e-021   -20.010   -20.010     0.000     (0)  
O(0)         0.000e+000
   O2             0.000e+000  0.000e+000   -42.080   -42.080     0.000     30.40

------------------------------Saturation indices-------------------------------

	Phase               SI   log IAP   log K(298 K,   1 atm)

	H2(g)           -22.05    -25.15   -3.10  H2
	H2O(g)           -1.50     -0.00    1.50  H2O
	Halite           -7.60     -6.03    1.57  NaCl
	O2(g)           -39.19    -42.08   -2.89  O2


-----------------------------------------
Beginning of batch-reaction calculations.
-----------------------------------------

Reaction step 1.

WARNING: Maximum iterations exceeded, 100

WARNING: Numerical method failed with this set of convergence parameters.

WARNING: Trying smaller step size, pe step size 10, 5 ... 

WARNING: Maximum iterations exceeded, 200

WARNING: Numerical method failed with this set of convergence parameters.

WARNING: Trying reduced tolerance 1e-016 ...

Using solution 1.	
Using pure phase assemblage 1.	

----------------------------------User print-----------------------------------

 1.0000e-003  1.1111e+002  1.0000e-001 

-------------------------------Phase assemblage--------------------------------

                                                      Moles in assemblage
Phase               SI  log IAP  log K(T, P)   Initial       Final       Delta

Goethite         -0.00    -1.00     -1.00   1.000e-001  1.000e-001  9.995e-011

-----------------------------Solution composition------------------------------

	Elements           Molality       Moles

	Cl               1.000e-003  1.000e-003
	Fe               5.132e-014  5.132e-014
	Na               1.000e-003  1.000e-003

----------------------------Description of solution----------------------------

                                       pH  =   7.000      Charge balance
                                       pe  =   5.946      Adjusted to redox equilibrium
       Specific Conductance (uS/cm, 25 oC) = 123
                          Density (g/cm3)  =   0.99708
                               Volume (L)  =   1.00298
                        Activity of water  =   1.000
                           Ionic strength  =  1.000e-003
                       Mass of water (kg)  =  1.000e+000
                 Total alkalinity (eq/kg)  =  1.451e-009
                    Total carbon (mol/kg)  =  0.000e+000
                       Total CO2 (mol/kg)  =  0.000e+000
                      Temperature (deg C)  =  25.00
                  Electrical balance (eq)  = -1.451e-009
 Percent error, 100*(Cat-|An|)/(Cat+|An|)  =  -0.00
                               Iterations  =  14
                                  Total H  = 1.110124e+002
                                  Total O  = 5.550622e+001

----------------------------Distribution of species----------------------------

                                               Log       Log       Log    mole V
   Species          Molality    Activity  Molality  Activity     Gamma   cm3/mol

   OH-            1.049e-007  1.012e-007    -6.979    -6.995    -0.016     -4.11
   H+             1.035e-007  1.000e-007    -6.985    -7.000    -0.015      0.00
   H2O            5.551e+001  1.000e+000     1.744    -0.000     0.000     18.07
Cl           1.000e-003
   Cl-            1.000e-003  9.649e-004    -3.000    -3.016    -0.016     18.07
   FeCl+          1.635e-018  1.578e-018   -17.786   -17.802    -0.015     (0)  
   FeCl+2         3.356e-024  2.914e-024   -23.474   -23.535    -0.061     (0)  
   FeCl2+         1.301e-026  1.256e-026   -25.886   -25.901    -0.015     (0)  
   FeCl3          1.212e-030  1.212e-030   -29.917   -29.917     0.000     (0)  
Fe(2)        1.368e-015
   Fe+2           1.362e-015  1.185e-015   -14.866   -14.926    -0.061    -22.14
   FeOH+          3.881e-018  3.746e-018   -17.411   -17.426    -0.015     (0)  
   FeCl+          1.635e-018  1.578e-018   -17.786   -17.802    -0.015     (0)  
   Fe(OH)2        3.187e-022  3.188e-022   -21.497   -21.496     0.000     (0)  
   Fe(OH)3-       1.227e-025  1.184e-025   -24.911   -24.926    -0.015     (0)  
Fe(3)        4.995e-014
   Fe(OH)3        2.754e-014  2.754e-014   -13.560   -13.560     0.000     (0)  
   Fe(OH)2+       2.214e-014  2.138e-014   -13.655   -13.670    -0.015     (0)  
   Fe(OH)4-       2.602e-016  2.512e-016   -15.585   -15.600    -0.015     (0)  
   FeOH+2         7.436e-018  6.457e-018   -17.129   -17.190    -0.061     (0)  
   Fe+3           1.358e-022  1.000e-022   -21.867   -22.000    -0.133     (0)  
   FeCl+2         3.356e-024  2.914e-024   -23.474   -23.535    -0.061     (0)  
   FeCl2+         1.301e-026  1.256e-026   -25.886   -25.901    -0.015     (0)  
   FeCl3          1.212e-030  1.212e-030   -29.917   -29.917     0.000     (0)  
   Fe2(OH)2+4     1.985e-033  1.122e-033   -32.702   -32.950    -0.248     (0)  
   Fe3(OH)4+5     0.000e+000  0.000e+000   -43.913   -44.300    -0.387     (0)  
H(0)         1.811e-029
   H2             9.057e-030  9.059e-030   -29.043   -29.043     0.000     28.61
Na           1.000e-003
   Na+            1.000e-003  9.652e-004    -3.000    -3.015    -0.015     -1.39
   NaOH           9.767e-021  9.769e-021   -20.010   -20.010     0.000     (0)  
O(0)         1.016e-034
   O2             5.078e-035  5.079e-035   -34.294   -34.294     0.000     30.40

------------------------------Saturation indices-------------------------------

	Phase               SI   log IAP   log K(298 K,   1 atm)

	Fe(OH)3(a)       -5.89     -1.00    4.89  Fe(OH)3
	Goethite         -0.00     -1.00   -1.00  FeOOH
	H2(g)           -25.94    -29.04   -3.10  H2
	H2O(g)           -1.50     -0.00    1.50  H2O
	Halite           -7.60     -6.03    1.57  NaCl
	Hematite          2.01     -2.00   -4.01  Fe2O3
	O2(g)           -31.40    -34.29   -2.89  O2


------------------
End of simulation.
------------------

-------------------------------------
Reading input data for simulation 12.
-------------------------------------

	SURFACE 1 
	 Hfo_sO- Goethite 1e-2 2e3 
	 donnan # can be added, wonderful! 
	 equilibrate 1
	END
WARNING: Suggest master species of surface, Hfo_sO-, be uncharged for surface related to equilibrium_phase.
------------------------------------------------------
Beginning of initial surface-composition calculations.
------------------------------------------------------

Surface 1.	

Hfo           
	 8.710e-010  Surface + diffuse layer charge, eq
	-1.000e-003  Surface charge, eq
	-4.825e-001  sigma, C/m**2
	-2.857e-001  psi, V
	 1.112e+001  -F*psi/RT
	 6.764e+004  exp(-F*psi/RT)
	 2.000e+003  specific area, m**2/mol Goethite
	 2.000e+002  m**2 for  1.000e-001 moles of Goethite

	Water in diffuse layer: 2.000e-003 kg, 100.0% of total DDL-water.

	Total moles in diffuse layer (excluding water), Donnan calculation 

	Element       	     Moles
	Cl            	 4.0004e-009
	Fe            	 7.0702e-013
	H             	 1.0344e-007
	Na            	 9.9990e-004
	O             	 4.6783e-013

Hfo_s         
	 1.000e-003  moles	[0.01 mol/(mol Goethite)]
	                                   Mole                     Log
	Species               Moles    Fraction    Molality    Molality

	Hfo_sO-          1.000e-003       1.000  1.000e-003      -3.000
	Hfo_sOH2+        8.922e-101       0.000  8.922e-101    -100.050
	Hfo_sOH          6.764e-106       0.000  6.764e-106    -105.170
	Hfo_sOFe+        6.082e-110       0.000  6.082e-110    -109.216

------------------
End of simulation.
------------------

-------------------------------------
Reading input data for simulation 13.
-------------------------------------

	USE solution 1
	USE surface 1
	USE equilibrium_phases 1
	Reaction
		HCl 1
		5
	END 
-----------------------------------------
Beginning of batch-reaction calculations.
-----------------------------------------

Reaction step 1.

Using solution 1.	Solution after simulation 11.
Using surface 1.	
Using pure phase assemblage 1.	
Using reaction 1.	

Reaction 1.	

	 5.000e+000 moles of the following reaction have been added:

	                 Relative
	Reactant            moles

	HCl                  1.00000

	                 Relative
	Element             moles
	Cl                   1.00000
	H                    1.00000

----------------------------------User print-----------------------------------

 5.0010e+000  1.1611e+002  5.0000e+000 

-------------------------------Phase assemblage--------------------------------

                                                      Moles in assemblage
Phase               SI  log IAP  log K(T, P)   Initial       Final       Delta

Goethite         -5.17    -6.17     -1.00   1.000e-001           0 -1.000e-001

------------------------------Surface composition------------------------------

Hfo           
	 1.000e-015  Surface + diffuse layer charge, eq
	-7.988e-026  Surface charge, eq
	undefined  sigma, C/m**2
	-2.843e-001  psi, V
	 1.106e+001  -F*psi/RT
	 6.386e+004  exp(-F*psi/RT)
	 2.000e+003  specific area, m**2/mol Goethite
	 0.000e+000  m**2 for  0.000e+000 moles of Goethite

	Water in diffuse layer: 0.000e+000 kg,  0.0% of total DDL-water.

	Total moles in diffuse layer (excluding water), Donnan calculation 

	Element       	     Moles
	Cl            	 5.0010e-012
	Fe            	 1.0000e-013
	H             	 4.7000e-012
	Na            	 1.9999e-015
	O             	 5.3663e-019

Hfo_s         
	 0.000e+000  moles	[0.01 mol/(mol Goethite)]
	                                   Mole                     Log
	Species               Moles    Fraction    Molality    Molality

	Hfo_sO-          7.988e-026       0.000  7.959e-026     -25.099
	Hfo_sOH2+        6.997e-108       0.000  6.972e-108    -107.157
	Hfo_sOH          1.693e-120       0.000  1.687e-120    -119.773
	Hfo_sOFe+        3.872e-128       0.000  3.858e-128    -127.414

-----------------------------Solution composition------------------------------

	Elements           Molality       Moles

	Cl               4.983e+000  5.001e+000
	Fe               9.964e-002  1.000e-001
	Na               1.993e-003  2.000e-003

----------------------------Description of solution----------------------------

                                       pH  =  -0.521      Charge balance
                                       pe  =  19.538      Adjusted to redox equilibrium
       Specific Conductance (uS/cm, 25 oC) = 883681
                          Density (g/cm3)  =   1.08033
                               Volume (L)  =   1.10269
                        Activity of water  =   0.837
                           Ionic strength  =  4.841e+000
                       Mass of water (kg)  =  1.004e+000
                 Total alkalinity (eq/kg)  = -4.882e+000
                    Total carbon (mol/kg)  =  0.000e+000
                       Total CO2 (mol/kg)  =  0.000e+000
                      Temperature (deg C)  =  25.00
                  Electrical balance (eq)  =  1.000e-003
 Percent error, 100*(Cat-|An|)/(Cat+|An|)  =   0.01
                               Iterations  =   1
                                  Total H  = 1.161124e+002
                                  Total O  = 5.570622e+001

----------------------------Distribution of species----------------------------

                                               Log       Log       Log    mole V
   Species          Molality    Activity  Molality  Activity     Gamma   cm3/mol

   H+             4.683e+000  3.319e+000     0.671     0.521    -0.150      0.00
   OH-            5.307e-015  2.552e-015   -14.275   -14.593    -0.318      3.21
   H2O            5.551e+001  8.369e-001     1.744    -0.077     0.000     18.07
Cl           4.983e+000
   Cl-            4.810e+000  2.849e+000     0.682     0.455    -0.227     19.91
   FeCl2+         6.703e-002  3.829e-002    -1.174    -1.417    -0.243     (0)  
   FeCl+2         2.826e-002  3.008e-003    -1.549    -2.522    -0.973     (0)  
   FeCl3          3.578e-003  1.091e-002    -2.446    -1.962     0.484     (0)  
   FeCl+          1.697e-011  4.167e-011   -10.770   -10.380     0.390     (0)  
Fe(2)        9.045e-011
   Fe+2           7.348e-011  1.059e-011   -10.134   -10.975    -0.841    -18.16
   FeCl+          1.697e-011  4.167e-011   -10.770   -10.380     0.390     (0)  
   FeOH+          1.479e-021  8.447e-022   -20.830   -21.073    -0.243     (0)  
   Fe(OH)2        5.947e-034  1.813e-033   -33.226   -32.742     0.484     (0)  
   Fe(OH)3-       0.000e+000  0.000e+000   -43.527   -43.770    -0.243     (0)  
Fe(3)        9.964e-002
   FeCl2+         6.703e-002  3.829e-002    -1.174    -1.417    -0.243     (0)  
   FeCl+2         2.826e-002  3.008e-003    -1.549    -2.522    -0.973     (0)  
   FeCl3          3.578e-003  1.091e-002    -2.446    -1.962     0.484     (0)  
   Fe+3           7.749e-004  3.496e-005    -3.111    -4.456    -1.346     (0)  
   FeOH+2         5.346e-007  5.691e-008    -6.272    -7.245    -0.973     (0)  
   Fe(OH)2+       8.049e-012  4.752e-012   -11.094   -11.323    -0.229     (0)  
   Fe(OH)3        5.063e-020  1.543e-019   -19.296   -18.812     0.484     (0)  
   Fe2(OH)2+4     5.004e-020  8.717e-014   -19.301   -13.060     6.241     (0)  
   Fe(OH)4-       6.012e-029  3.549e-029   -28.221   -28.450    -0.229     (0)  
   Fe3(OH)4+5     1.533e-032  8.653e-023   -31.814   -22.063     9.752     (0)  
H(0)         0.000e+000
   H2             0.000e+000  0.000e+000   -41.669   -41.185     0.484     28.61
Na           1.993e-003
   Na+            1.993e-003  2.584e-003    -2.701    -2.588     0.113      1.07
   NaOH           2.163e-028  6.594e-028   -27.665   -27.181     0.484     (0)  
O(0)         4.488e-011
   O2             2.244e-011  6.842e-011   -10.649   -10.165     0.484     30.40

------------------------------Saturation indices-------------------------------

	Phase               SI   log IAP   log K(298 K,   1 atm)

	Fe(OH)3(a)      -11.14     -6.25    4.89  Fe(OH)3
	Goethite         -5.17     -6.17   -1.00  FeOOH
	H2(g)           -38.08    -41.18   -3.10  H2
	H2O(g)           -1.58     -0.08    1.50  H2O
	Halite           -3.70     -2.13    1.57  NaCl
	Hematite         -8.26    -12.27   -4.01  Fe2O3
	O2(g)            -7.27    -10.16   -2.89  O2


------------------
End of simulation.
------------------

-------------------------------------
Reading input data for simulation 14.
-------------------------------------

	EQUILIBRIUM_PHASES 1 
	 Goethite 0 .1 
	SOLUTION 1 
	 Na 1
	 Br 1
	 Cl 1e-6 
	SAVE solution 1
	USER_PRINT
	 10 print sys("Cl"), sys("H"), sys("H") - get(1)
	 20 put(sys("H"), 1)
	END
-------------------------------------------
Beginning of initial solution calculations.
-------------------------------------------

Initial solution 1.	

----------------------------------User print-----------------------------------

 1.0000e-009  1.1101e+002 -5.1000e+000 

-----------------------------Solution composition------------------------------

	Elements           Molality       Moles

	Br               1.000e-003  1.000e-003
	Cl               1.000e-009  1.000e-009
	Na               1.000e-003  1.000e-003

----------------------------Description of solution----------------------------

                                       pH  =   7.000    
                                       pe  =   4.000    
       Specific Conductance (uS/cm, 25 oC) = 122
                          Density (g/cm3)  =   0.99712
                               Volume (L)  =   1.00299
                        Activity of water  =   1.000
                           Ionic strength  =  1.000e-003
                       Mass of water (kg)  =  1.000e+000
                 Total alkalinity (eq/kg)  =  1.451e-009
                    Total carbon (mol/kg)  =  0.000e+000
                       Total CO2 (mol/kg)  =  0.000e+000
                      Temperature (deg C)  =  25.00
                  Electrical balance (eq)  = -2.451e-009
 Percent error, 100*(Cat-|An|)/(Cat+|An|)  =  -0.00
                               Iterations  =   3
                                  Total H  = 1.110124e+002
                                  Total O  = 5.550622e+001

----------------------------Distribution of species----------------------------

                                               Log       Log       Log    mole V
   Species          Molality    Activity  Molality  Activity     Gamma   cm3/mol

   OH-            1.049e-007  1.012e-007    -6.979    -6.995    -0.016     -4.11
   H+             1.035e-007  1.000e-007    -6.985    -7.000    -0.015      0.00
   H2O            5.551e+001  1.000e+000     1.744    -0.000     0.000     18.07
Br           1.000e-003
   Br-            1.000e-003  9.646e-004    -3.000    -3.016    -0.016     24.81
Cl           1.000e-009
   Cl-            1.000e-009  9.649e-010    -9.000    -9.016    -0.016     18.07
H(0)         1.416e-025
   H2             7.078e-026  7.079e-026   -25.150   -25.150     0.000     28.61
Na           1.000e-003
   Na+            1.000e-003  9.652e-004    -3.000    -3.015    -0.015     -1.39
   NaOH           9.767e-021  9.769e-021   -20.010   -20.010     0.000     (0)  
O(0)         0.000e+000
   O2             0.000e+000  0.000e+000   -42.080   -42.080     0.000     30.40

------------------------------Saturation indices-------------------------------

	Phase               SI   log IAP   log K(298 K,   1 atm)

	H2(g)           -22.05    -25.15   -3.10  H2
	H2O(g)           -1.50     -0.00    1.50  H2O
	Halite          -13.60    -12.03    1.57  NaCl
	O2(g)           -39.19    -42.08   -2.89  O2


-----------------------------------------
Beginning of batch-reaction calculations.
-----------------------------------------

Reaction step 1.

WARNING: Maximum iterations exceeded, 100

WARNING: Numerical method failed with this set of convergence parameters.

WARNING: Trying smaller step size, pe step size 10, 5 ... 

WARNING: Maximum iterations exceeded, 200

WARNING: Numerical method failed with this set of convergence parameters.

WARNING: Trying reduced tolerance 1e-016 ...

Using solution 1.	
Using pure phase assemblage 1.	

----------------------------------User print-----------------------------------

 1.0000e-009  1.1111e+002  1.0000e-001 

-------------------------------Phase assemblage--------------------------------

                                                      Moles in assemblage
Phase               SI  log IAP  log K(T, P)   Initial       Final       Delta

Goethite          0.00    -1.00     -1.00   1.000e-001  1.000e-001  9.995e-011

-----------------------------Solution composition------------------------------

	Elements           Molality       Moles

	Br               1.000e-003  1.000e-003
	Cl               1.000e-009  1.000e-009
	Fe               5.142e-014  5.142e-014
	Na               1.000e-003  1.000e-003

----------------------------Description of solution----------------------------

                                       pH  =   7.000      Charge balance
                                       pe  =   5.915      Adjusted to redox equilibrium
       Specific Conductance (uS/cm, 25 oC) = 122
                          Density (g/cm3)  =   0.99712
                               Volume (L)  =   1.00299
                        Activity of water  =   1.000
                           Ionic strength  =  1.000e-003
                       Mass of water (kg)  =  1.000e+000
                 Total alkalinity (eq/kg)  =  1.451e-009
                    Total carbon (mol/kg)  =  0.000e+000
                       Total CO2 (mol/kg)  =  0.000e+000
                      Temperature (deg C)  =  25.00
                  Electrical balance (eq)  = -2.451e-009
 Percent error, 100*(Cat-|An|)/(Cat+|An|)  =  -0.00
                               Iterations  =  14
                                  Total H  = 1.110124e+002
                                  Total O  = 5.550622e+001

----------------------------Distribution of species----------------------------

                                               Log       Log       Log    mole V
   Species          Molality    Activity  Molality  Activity     Gamma   cm3/mol

   OH-            1.049e-007  1.012e-007    -6.979    -6.995    -0.016     -4.11
   H+             1.035e-007  1.000e-007    -6.985    -7.000    -0.015      0.00
   H2O            5.551e+001  1.000e+000     1.744    -0.000     0.000     18.07
Br           1.000e-003
   Br-            1.000e-003  9.646e-004    -3.000    -3.016    -0.016     24.81
Cl           1.000e-009
   Cl-            1.000e-009  9.649e-010    -9.000    -9.016    -0.016     18.07
   FeCl+          1.759e-024  1.697e-024   -23.755   -23.770    -0.015     (0)  
   FeCl+2         3.356e-030  2.914e-030   -29.474   -29.535    -0.061     (0)  
   FeCl2+         1.301e-038  1.256e-038   -37.886   -37.901    -0.015     (0)  
   FeCl3          0.000e+000  0.000e+000   -47.917   -47.917     0.000     (0)  
Fe(2)        1.470e-015
   Fe+2           1.465e-015  1.274e-015   -14.834   -14.895    -0.061    -22.14
   FeOH+          4.174e-018  4.029e-018   -17.379   -17.395    -0.015     (0)  
   Fe(OH)2        3.428e-022  3.429e-022   -21.465   -21.465     0.000     (0)  
   FeCl+          1.759e-024  1.697e-024   -23.755   -23.770    -0.015     (0)  
   Fe(OH)3-       1.320e-025  1.274e-025   -24.880   -24.895    -0.015     (0)  
Fe(3)        4.995e-014
   Fe(OH)3        2.754e-014  2.754e-014   -13.560   -13.560     0.000     (0)  
   Fe(OH)2+       2.214e-014  2.138e-014   -13.655   -13.670    -0.015     (0)  
   Fe(OH)4-       2.602e-016  2.512e-016   -15.585   -15.600    -0.015     (0)  
   FeOH+2         7.436e-018  6.457e-018   -17.129   -17.190    -0.061     (0)  
   Fe+3           1.358e-022  1.000e-022   -21.867   -22.000    -0.133     (0)  
   FeCl+2         3.356e-030  2.914e-030   -29.474   -29.535    -0.061     (0)  
   Fe2(OH)2+4     1.985e-033  1.122e-033   -32.702   -32.950    -0.248     (0)  
   FeCl2+         1.301e-038  1.256e-038   -37.886   -37.901    -0.015     (0)  
   Fe3(OH)4+5     0.000e+000  0.000e+000   -43.913   -44.300    -0.387     (0)  
   FeCl3          0.000e+000  0.000e+000   -47.917   -47.917     0.000     (0)  
H(0)         2.095e-029
   H2             1.048e-029  1.048e-029   -28.980   -28.980     0.000     28.61
Na           1.000e-003
   Na+            1.000e-003  9.652e-004    -3.000    -3.015    -0.015     -1.39
   NaOH           9.767e-021  9.769e-021   -20.010   -20.010     0.000     (0)  
O(0)         7.589e-035
   O2             3.795e-035  3.795e-035   -34.421   -34.421     0.000     30.40

------------------------------Saturation indices-------------------------------

	Phase               SI   log IAP   log K(298 K,   1 atm)

	Fe(OH)3(a)       -5.89     -1.00    4.89  Fe(OH)3
	Goethite          0.00     -1.00   -1.00  FeOOH
	H2(g)           -25.88    -28.98   -3.10  H2
	H2O(g)           -1.50     -0.00    1.50  H2O
	Halite          -13.60    -12.03    1.57  NaCl
	Hematite          2.01     -2.00   -4.01  Fe2O3
	O2(g)           -31.53    -34.42   -2.89  O2


------------------
End of simulation.
------------------

-------------------------------------
Reading input data for simulation 15.
-------------------------------------

	SURFACE 1 
	 Hfo_wCl Goethite 1e-2 2e3 
	 donnan # can be added, wonderful! 
	 equilibrate 1
	END
WARNING: Suggest using master species formula in SURFACE 
	 for surface related to equilibrium_phase: Hfo_wOH.
WARNING: Element Cl in sum of surface sites,
	 including Hfo_wOH * 0.01 mol sites/mol phase,
	 exceeds stoichiometry in the related phase Goethite, FeOOH.
WARNING: The mismatch in stoichiometry may cause mass-balance errors or unwanted redox reactions.
------------------------------------------------------
Beginning of initial surface-composition calculations.
------------------------------------------------------

Surface 1.	

Hfo           
	-5.834e-015  Surface + diffuse layer charge, eq
	 1.234e-005  Surface charge, eq
	 5.953e-003  sigma, C/m**2
	 6.430e-002  psi, V
	-2.503e+000  -F*psi/RT
	 8.186e-002  exp(-F*psi/RT)
	 2.000e+003  specific area, m**2/mol Goethite
	 2.000e+002  m**2 for  1.000e-001 moles of Goethite

	Water in diffuse layer: 2.000e-003 kg, 100.0% of total DDL-water.

	Total moles in diffuse layer (excluding water), Donnan calculation 

	Element       	     Moles
	Br            	 1.2654e-005
	Cl            	 1.2654e-011
	Fe            	 6.5437e-017
	H             	 1.3601e-009
	Na            	 3.1611e-007
	O             	 1.3274e-009

Hfo_w         
	 1.000e-003  moles	[0.01 mol/(mol Goethite)]
	                                   Mole                     Log
	Species               Moles    Fraction    Molality    Molality

	Hfo_wOH          7.674e-004       0.767  7.674e-004      -3.115
	Hfo_wOH2+        1.225e-004       0.122  1.225e-004      -3.912
	Hfo_wO-          1.101e-004       0.110  1.101e-004      -3.958
	Hfo_wOFe+        8.381e-016       0.000  8.381e-016     -15.077
	Hfo_wOFeOH       2.756e-016       0.000  2.756e-016     -15.560

------------------
End of simulation.
------------------

-------------------------------------
Reading input data for simulation 16.
-------------------------------------

	USE solution 1
	USE surface 1
	USE equilibrium_phases 1
	Reaction
		HBr 1
		5
	END 
-----------------------------------------
Beginning of batch-reaction calculations.
-----------------------------------------

Reaction step 1.

WARNING: Maximum iterations exceeded, 100

WARNING: Numerical method failed with this set of convergence parameters.

WARNING: Trying smaller step size, pe step size 10, 5 ... 

WARNING: Maximum iterations exceeded, 200

WARNING: Numerical method failed with this set of convergence parameters.

WARNING: Trying reduced tolerance 1e-016 ...

WARNING: Maximum iterations exceeded, 200

WARNING: Numerical method failed with this set of convergence parameters.

WARNING: Trying increased tolerance 1e-014 ...

WARNING: Maximum iterations exceeded, 200

WARNING: Numerical method failed with this set of convergence parameters.

WARNING: Trying diagonal scaling ...

WARNING: Maximum iterations exceeded, 200

WARNING: Numerical method failed with this set of convergence parameters.

WARNING: Trying diagonal scaling and reduced tolerance 1e-016 ...

WARNING: Maximum iterations exceeded, 200

WARNING: Numerical method failed with this set of convergence parameters.

WARNING: Trying scaling pure_phase columns 1e-010 ...

WARNING: Maximum iterations exceeded, 200

WARNING: Numerical method failed with this set of convergence parameters.

WARNING: Trying scaling pure_phase columns and diagonal scale 1e-010 ...

WARNING: Maximum iterations exceeded, 200

WARNING: Numerical method failed with this set of convergence parameters.

WARNING: Trying increased scaling 1e-009 ...

WARNING: Maximum iterations exceeded, 200

WARNING: Numerical method failed with this set of convergence parameters.

WARNING: Skipping optimize equations for first 5 iterations ...

WARNING: Maximum iterations exceeded, 100

WARNING: Numerical method failed with this set of convergence parameters.

WARNING: Adding inequality to make concentrations greater than zero.

WARNING: Maximum iterations exceeded, 100

WARNING: Numerical method failed with this set of convergence parameters.

WARNING: Trying reduced tolerance 1e-017 ...

WARNING: Maximum iterations exceeded, 200

WARNING: Numerical method failed with this set of convergence parameters.

WARNING: Trying reduced tolerance 1e-018 ...

WARNING: Maximum iterations exceeded, 200

WARNING: Numerical method failed with this set of convergence parameters.

WARNING: The program has failed to converge to a numerical solution.

The following equations were not satisfied:
ERROR:                   Br has not converged. Total: 5.001013e+000	Calculated: 5.001014e+000	Residual: -1.010897e-006

ERROR:                   Fe has not converged. Total: 4.493853e-005	Calculated: 2.375983e-006	Residual: 4.256254e-005

ERROR:                   Na has not converged. Total: 1.000316e-003	Calculated: 1.000316e-003	Residual: 1.506643e-010

ERROR:                   Mu Ionic strength has not converged. 	Residual: -7.600442e-006

ERROR:               A(H2O) Activity of water has not converged. 	Residual: 2.964557e-008

ERROR:                   pH Charge balance has not converged. 	Residual: -5.064520e-006

ERROR:             Hydrogen Mass of hydrogen has not converged. 	Residual: -1.317857e-004

ERROR:               Oxygen Mass of oxygen has not converged. 	Residual: 3.919878e-005

ERROR:                Hfo_w Surface mass balance has not converged. 	Residual: 4.970147e-009

ERROR:               Hfo_CB Surface charge/potential has not converged. 	Residual: 2.202798e-006

Using solution 1.	Solution after simulation 14.
Using surface 1.	
Using pure phase assemblage 1.	
Using reaction 1.	

Reaction 1.	

	 5.000e+000 moles of the following reaction have been added:

	                 Relative
	Reactant            moles

	HBr                  1.00000

	                 Relative
	Element             moles
	Br                   1.00000
	H                    1.00000

----------------------------------User print-----------------------------------

           0  1.1611e+002  5.0011e+000 

-------------------------------Phase assemblage--------------------------------

                                                      Moles in assemblage
Phase               SI  log IAP  log K(T, P)   Initial       Final       Delta

Goethite         -7.78    -8.78     -1.00   1.000e-001  9.996e-002 -4.494e-005

------------------------------Surface composition------------------------------

Hfo           
	-2.203e-006  Surface + diffuse layer charge, eq
	 9.995e-004  Surface charge, eq
	 4.825e-001  sigma, C/m**2
	 7.050e-002  psi, V
	-2.744e+000  -F*psi/RT
	 6.431e-002  exp(-F*psi/RT)
	 2.000e+003  specific area, m**2/mol Goethite
	 1.999e+002  m**2 for  9.996e-002 moles of Goethite

	Water in diffuse layer: 1.999e-003 kg, 100.0% of total DDL-water.

	Total moles in diffuse layer (excluding water), Donnan calculation 

	Element       	     Moles
	Br            	 1.0490e-002
	Cl            	 0.0000e+000
	Fe            	 4.0791e-009
	H             	 9.4863e-003
	Na            	 1.8982e-006
	O             	 2.3020e-010

Hfo_w         
	 9.996e-004  moles	[0.01 mol/(mol Goethite)]
	                                   Mole                     Log
	Species               Moles    Fraction    Molality    Molality

	Hfo_wOH2+        9.995e-004       1.000  9.995e-004      -3.000
	Hfo_wOH          2.256e-010       0.000  2.256e-010      -9.647
	Hfo_wO-          1.166e-018       0.000  1.166e-018     -17.933
	Hfo_wOFe+        1.810e-029       0.000  1.810e-029     -28.742
	Hfo_wOFeOH       1.780e-037       0.000  1.780e-037     -36.750

-----------------------------Solution composition------------------------------

	Elements           Molality       Moles

	Br               4.991e+000  4.991e+000
	Cl               0.000e+000  0.000e+000
	Fe               2.372e-006  2.372e-006
	Na               9.984e-004  9.984e-004

----------------------------Description of solution----------------------------

                                       pH  =  -0.548      Charge balance
                                       pe  =  20.422      Adjusted to redox equilibrium
       Specific Conductance (uS/cm, 25 oC) = 867679
                          Density (g/cm3)  =   1.23451
                               Volume (L)  =   1.13715
                        Activity of water  =   0.830
                           Ionic strength  =  4.991e+000
                       Mass of water (kg)  =  1.000e+000
                 Total alkalinity (eq/kg)  = -4.990e+000
                    Total carbon (mol/kg)  =  0.000e+000
                       Total CO2 (mol/kg)  =  0.000e+000
                      Temperature (deg C)  =  25.00
                  Electrical balance (eq)  =  5.062e-006
 Percent error, 100*(Cat-|An|)/(Cat+|An|)  =   0.00
                               Iterations  = 201
                                  Total H  = 1.160021e+002
                                  Total O  = 5.550627e+001

----------------------------Distribution of species----------------------------

                                               Log       Log       Log    mole V
   Species          Molality    Activity  Molality  Activity     Gamma   cm3/mol

   H+             4.990e+000  3.534e+000     0.698     0.548    -0.150      0.00
   OH-            4.961e-015  2.378e-015   -14.304   -14.624    -0.319      3.41
   H2O            5.551e+001  8.303e-001     1.744    -0.081     0.000     18.07
Br           4.991e+000
   Br-            4.991e+000  2.199e+000     0.698     0.342    -0.356     26.89
Cl           0.000e+000
   Cl-            0.000e+000  0.000e+000   -40.944   -41.170    -0.226     19.94
   FeCl+2         0.000e+000  0.000e+000   -45.687   -46.664    -0.976     (0)  
   FeCl+          0.000e+000  0.000e+000   -55.817   -55.406     0.411     (0)  
   FeCl2+         0.000e+000  0.000e+000   -86.939   -87.183    -0.244     (0)  
   FeCl3          0.000e+000  0.000e+000  -129.852  -129.353     0.499     (0)  
Fe(2)        2.936e-014
   Fe+2           2.936e-014  4.210e-015   -13.532   -14.376    -0.844    -18.08
   FeOH+          5.486e-025  3.128e-025   -24.261   -24.505    -0.244     (0)  
   Fe(OH)2        1.983e-037  6.256e-037   -36.703   -36.204     0.499     (0)  
   Fe(OH)3-       0.000e+000  0.000e+000   -47.019   -47.263    -0.244     (0)  
   FeCl+          0.000e+000  0.000e+000   -55.817   -55.406     0.411     (0)  
Fe(3)        2.372e-006
   Fe+3           2.370e-006  1.063e-007    -5.625    -6.974    -1.348     (0)  
   FeOH+2         1.526e-009  1.612e-010    -8.817    -9.793    -0.976     (0)  
   Fe(OH)2+       2.128e-014  1.254e-014   -13.672   -13.902    -0.230     (0)  
   Fe(OH)3        1.203e-022  3.797e-022   -21.920   -21.421     0.499     (0)  
   Fe2(OH)2+4     1.838e-025  6.994e-019   -24.736   -18.155     6.580     (0)  
   Fe(OH)4-       1.380e-031  8.136e-032   -30.860   -31.090    -0.230     (0)  
   Fe3(OH)4+5     0.000e+000  1.833e-030   -40.019   -29.737    10.282     (0)  
   FeCl+2         0.000e+000  0.000e+000   -45.687   -46.664    -0.976     (0)  
   FeCl2+         0.000e+000  0.000e+000   -86.939   -87.183    -0.244     (0)  
   FeCl3          0.000e+000  0.000e+000  -129.852  -129.353     0.499     (0)  
H(0)         0.000e+000
   H2             0.000e+000  0.000e+000   -43.397   -42.898     0.499     28.61
Na           9.984e-004
   Na+            9.984e-004  1.328e-003    -3.001    -2.877     0.124      1.12
   NaOH           1.001e-028  3.159e-028   -28.000   -27.500     0.499     (0)  
O(0)         1.138e-007
   O2             5.689e-008  1.795e-007    -7.245    -6.746     0.499     30.40

------------------------------Saturation indices-------------------------------

	Phase               SI   log IAP   log K(298 K,   1 atm)

	Fe(OH)3(a)      -13.75     -8.86    4.89  Fe(OH)3
	Goethite         -7.78     -8.78   -1.00  FeOOH
	H2(g)           -39.80    -42.90   -3.10  H2
	H2O(g)           -1.58     -0.08    1.50  H2O
	Halite          -45.62    -44.05    1.57  NaCl
	Hematite        -13.47    -17.48   -4.01  Fe2O3
	O2(g)            -3.85     -6.75   -2.89  O2


ERROR: Numerical method failed on all combinations of convergence parameters
Stopping.
