   Input file: Vm0_tc
  Output file: Vm0_tc.out
Database file: ../database/Amm.dat

------------------
Reading data base.
------------------

	SOLUTION_MASTER_SPECIES
	SOLUTION_SPECIES
	PHASES
	EXCHANGE_MASTER_SPECIES
	EXCHANGE_SPECIES
	SURFACE_MASTER_SPECIES
	SURFACE_SPECIES
	RATES
	END
------------------------------------
Reading input data for simulation 1.
------------------------------------

	DATABASE ../database/Amm.dat
	SOLUTION 1
	 Na 1e-5
	 K 1e-5
	 Mg 1e-5
	 Ca 1e-5
	 Sr 1e-5
	 Ba 1e-5
	 Cl 1e-5
	 Alkalinity 1e-5
	 S(6) 1e-5
	END
-------------------------------------------
Beginning of initial solution calculations.
-------------------------------------------

Initial solution 1.	

-----------------------------Solution composition------------------------------

	Elements           Molality       Moles

	Alkalinity       1.000e-008  1.000e-008
	Ba               1.000e-008  1.000e-008
	Ca               1.000e-008  1.000e-008
	Cl               1.000e-008  1.000e-008
	K                1.000e-008  1.000e-008
	Mg               1.000e-008  1.000e-008
	Na               1.000e-008  1.000e-008
	S(6)             1.000e-008  1.000e-008
	Sr               1.000e-008  1.000e-008

----------------------------Description of solution----------------------------

                                       pH  =   7.000    
                                       pe  =   4.000    
       Specific Conductance (uS/cm, 25 oC) = 0
                          Density (g/cm3)  =   0.99704
                               Volume (L)  =   1.00297
                        Activity of water  =   1.000
                           Ionic strength  =  2.201e-007
                       Mass of water (kg)  =  1.000e+000
                    Total carbon (mol/kg)  =  1.075e-008
                       Total CO2 (mol/kg)  =  1.075e-008
                      Temperature (deg C)  =  25.00
                  Electrical balance (eq)  =  6.000e-008
 Percent error, 100*(Cat-|An|)/(Cat+|An|)  =  17.64
                               Iterations  =   3
                                  Total H  = 1.110124e+002
                                  Total O  = 5.550622e+001

----------------------------Distribution of species----------------------------

                                               Log       Log       Log    mole V
   Species          Molality    Activity  Molality  Activity     Gamma   cm3/mol

   OH-            1.013e-007  1.012e-007    -6.995    -6.995    -0.000     -4.14
   H+             1.001e-007  1.000e-007    -7.000    -7.000    -0.000      0.00
   H2O            5.551e+001  1.000e+000     1.744    -0.000     0.000     18.07
Ba           1.000e-008
   Ba+2           1.000e-008  9.978e-009    -8.000    -8.001    -0.001    -12.86
   BaSO4          4.990e-014  4.990e-014   -13.302   -13.302     0.000     (0)  
   BaOH+          3.383e-015  3.381e-015   -14.471   -14.471    -0.000     (0)  
   BaHCO3+        8.393e-016  8.388e-016   -15.076   -15.076    -0.000     (0)  
   BaCO3          2.120e-017  2.120e-017   -16.674   -16.674     0.000    -10.70
C(4)         1.075e-008
   HCO3-          8.775e-009  8.770e-009    -8.057    -8.057    -0.000     24.56
   CO2            1.972e-009  1.972e-009    -8.705    -8.705     0.000     30.26
   CO3-2          4.122e-012  4.113e-012   -11.385   -11.386    -0.001     -4.49
   SrHCO3+        1.339e-015  1.339e-015   -14.873   -14.873    -0.000     (0)  
   CaHCO3+        1.117e-015  1.116e-015   -14.952   -14.952    -0.000      9.64
   MgHCO3+        1.024e-015  1.024e-015   -14.990   -14.990    -0.000      5.45
   BaHCO3+        8.393e-016  8.388e-016   -15.076   -15.076    -0.000     (0)  
   NaHCO3         2.202e-016  2.202e-016   -15.657   -15.657     0.000     19.41
   CaCO3          6.894e-017  6.894e-017   -16.162   -16.162     0.000    -14.60
   MgCO3          3.916e-017  3.916e-017   -16.407   -16.407     0.000    -17.09
   SrCO3          2.620e-017  2.620e-017   -16.582   -16.582     0.000    -14.13
   BaCO3          2.120e-017  2.120e-017   -16.674   -16.674     0.000    -10.70
   NaCO3-         1.837e-019  1.836e-019   -18.736   -18.736    -0.000     -0.69
Ca           1.000e-008
   Ca+2           1.000e-008  9.978e-009    -8.000    -8.001    -0.001    -18.25
   CaSO4          1.770e-014  1.770e-014   -13.752   -13.752     0.000      7.50
   CaOH+          1.657e-014  1.656e-014   -13.781   -13.781    -0.000     (0)  
   CaHCO3+        1.117e-015  1.116e-015   -14.952   -14.952    -0.000      9.64
   CaCO3          6.894e-017  6.894e-017   -16.162   -16.162     0.000    -14.60
   CaHSO4+        1.164e-020  1.164e-020   -19.934   -19.934    -0.000     (0)  
Cl           1.000e-008
   Cl-            1.000e-008  9.994e-009    -8.000    -8.000    -0.000     18.05
H(0)         1.416e-025
   H2             7.079e-026  7.079e-026   -25.150   -25.150     0.000     28.61
K            1.000e-008
   K+             1.000e-008  9.994e-009    -8.000    -8.000    -0.000      8.98
   KSO4-          7.011e-016  7.007e-016   -15.154   -15.154    -0.000     (0)  
Mg           1.000e-008
   Mg+2           1.000e-008  9.978e-009    -8.000    -8.001    -0.001    -21.93
   MgOH+          3.625e-013  3.623e-013   -12.441   -12.441    -0.000     (0)  
   MgSO4          2.334e-014  2.334e-014   -13.632   -13.632     0.000      5.84
   MgHCO3+        1.024e-015  1.024e-015   -14.990   -14.990    -0.000      5.45
   MgCO3          3.916e-017  3.916e-017   -16.407   -16.407     0.000    -17.09
Na           1.000e-008
   Na+            1.000e-008  9.994e-009    -8.000    -8.000    -0.000     -1.42
   NaSO4-         5.001e-016  4.998e-016   -15.301   -15.301    -0.000     18.38
   NaHCO3         2.202e-016  2.202e-016   -15.657   -15.657     0.000     19.41
   NaCO3-         1.837e-019  1.836e-019   -18.736   -18.736    -0.000     -0.69
   NaOH           1.012e-025  1.012e-025   -24.995   -24.995     0.000     (0)  
O(0)         0.000e+000
   O2             0.000e+000  0.000e+000   -42.080   -42.080     0.000     30.40
S(6)         1.000e-008
   SO4-2          1.000e-008  9.978e-009    -8.000    -8.001    -0.001     13.89
   HSO4-          9.706e-014  9.701e-014   -13.013   -13.013    -0.000     40.25
   BaSO4          4.990e-014  4.990e-014   -13.302   -13.302     0.000     (0)  
   MgSO4          2.334e-014  2.334e-014   -13.632   -13.632     0.000      5.84
   SrSO4          1.941e-014  1.941e-014   -13.712   -13.712     0.000     24.24
   CaSO4          1.770e-014  1.770e-014   -13.752   -13.752     0.000      7.50
   KSO4-          7.011e-016  7.007e-016   -15.154   -15.154    -0.000     (0)  
   NaSO4-         5.001e-016  4.998e-016   -15.301   -15.301    -0.000     18.38
   CaHSO4+        1.164e-020  1.164e-020   -19.934   -19.934    -0.000     (0)  
Sr           1.000e-008
   Sr+2           1.000e-008  9.978e-009    -8.000    -8.001    -0.001    -17.90
   SrSO4          1.941e-014  1.941e-014   -13.712   -13.712     0.000     24.24
   SrOH+          5.120e-015  5.117e-015   -14.291   -14.291    -0.000     (0)  
   SrHCO3+        1.339e-015  1.339e-015   -14.873   -14.873    -0.000     (0)  
   SrCO3          2.620e-017  2.620e-017   -16.582   -16.582     0.000    -14.13

------------------------------Saturation indices-------------------------------

	Phase               SI   log IAP   log K(298 K,   1 atm)

	Anhydrite       -11.72    -16.00   -4.28  CaSO4
	Aragonite       -11.05    -19.39   -8.34  CaCO3
	Barite           -6.03    -16.00   -9.97  BaSO4
	Calcite         -10.91    -19.39   -8.48  CaCO3
	Celestite        -9.34    -16.00   -6.66  SrSO4
	CO2(g)           -7.24     -8.71   -1.46  CO2
	Dolomite        -21.68    -38.77  -17.09  CaMg(CO3)2
	Gypsum          -11.42    -16.00   -4.58  CaSO4:2H2O
	H2(g)           -22.05    -25.15   -3.10  H2
	H2O(g)           -1.50     -0.00    1.50  H2O
	Halite          -17.57    -16.00    1.57  NaCl
	O2(g)           -39.19    -42.08   -2.89  O2
	Strontianite    -10.12    -19.39   -9.27  SrCO3
	Sylvite         -16.90    -16.00    0.90  KCl
	Witherite       -10.83    -19.39   -8.56  BaCO3


------------------
End of simulation.
------------------

------------------------------------
Reading input data for simulation 2.
------------------------------------

	USE solution 1
	REACTION_TEMPERATURE
	 0 200 in 17
	USER_GRAPH
	 -plot_csv_file Vm0_tc.dat
	 -axis_titles "temp / oC" "molar volume at infinite dilution / (cm3/mol)"
	 -axis_scale x_axis 0 200
	 -axis_scale y_axis -50 30
	 10 graph_x tc 
	 20 graph_y Vm("Na+"), Vm("K+"), Vm("Mg+2"), Vm("Ca+2")
	 30 graph_y Vm("Cl-"), Vm("HCO3-"), Vm("SO4-2")
	 42 print tc
	 48 print "Na+ " "K+ " "Mg+2 " "Ca+2 " "Sr+2 " "Ba+2"
	 50 print Vm("Na+"), Vm("K+"), Vm("Mg+2"), Vm("Ca+2"), Vm("Sr+2"), Vm("Ba+2")
	 58 print "OH- " "Cl- " "HCO3- " "CO3-2 " "SO4-2" "CO2"
	 60 print Vm("OH-"), Vm("Cl-"), Vm("HCO3-"), Vm("CO3-2"), Vm("SO4-2"), Vm("CO2")
	 68 print "NaCO3- " "NaHCO3 "   "NaSO4-"
	 70 print Vm("NaCO3-"), vm("NaHCO3"),   Vm("NaSO4-")
	200 end
	END
-----------------------------------------
Beginning of batch-reaction calculations.
-----------------------------------------

Reaction step 1.

Using solution 1.	
Using temperature 1.	

-----------------------------Solution composition------------------------------

	Elements           Molality       Moles

	Ba               1.000e-008  1.000e-008
	C                1.075e-008  1.075e-008
	Ca               1.000e-008  1.000e-008
	Cl               1.000e-008  1.000e-008
	K                1.000e-008  1.000e-008
	Mg               1.000e-008  1.000e-008
	Na               1.000e-008  1.000e-008
	S                1.000e-008  1.000e-008
	Sr               1.000e-008  1.000e-008

----------------------------Description of solution----------------------------

                                       pH  =   7.472      Charge balance
                                       pe  =  12.689      Adjusted to redox equilibrium
       Specific Conductance (uS/cm, 0 oC) = 0
                          Density (g/cm3)  =   0.99984
                               Volume (L)  =   1.00016
                        Activity of water  =   1.000
                           Ionic strength  =  1.537e-007
                       Mass of water (kg)  =  1.000e+000
                 Total alkalinity (eq/kg)  =  1.000e-008
                       Total CO2 (mol/kg)  =  1.075e-008
                      Temperature (deg C)  =   0.00
                  Electrical balance (eq)  =  6.000e-008
 Percent error, 100*(Cat-|An|)/(Cat+|An|)  =  28.92
                               Iterations  =  14
                                  Total H  = 1.110124e+002
                                  Total O  = 5.550622e+001

----------------------------Distribution of species----------------------------

                                               Log       Log       Log    mole V
   Species          Molality    Activity  Molality  Activity     Gamma   cm3/mol

   OH-            3.419e-008  3.417e-008    -7.466    -7.466    -0.000     -6.19
   H+             3.373e-008  3.372e-008    -7.472    -7.472    -0.000      0.00
   H2O            5.551e+001  1.000e+000     1.744    -0.000     0.000     18.02
Ba           1.000e-008
   Ba+2           1.000e-008  9.982e-009    -8.000    -8.001    -0.001    -15.08
   BaSO4          4.994e-014  4.994e-014   -13.302   -13.302     0.000     (0)  
   BaOH+          1.004e-014  1.003e-014   -13.998   -13.999    -0.000     (0)  
   BaHCO3+        4.150e-016  4.149e-016   -15.382   -15.382    -0.000     (0)  
   BaCO3          2.074e-017  2.074e-017   -16.683   -16.683     0.000    -11.05
C(-4)        0.000e+000
   CH4            0.000e+000  0.000e+000  -142.243  -142.243     0.000     32.22
C(4)         1.075e-008
   HCO3-          9.528e-009  9.523e-009    -8.021    -8.021    -0.000     21.05
   CO2            1.217e-009  1.217e-009    -8.915    -8.915     0.000     40.55
   CO3-2          6.655e-012  6.643e-012   -11.177   -11.178    -0.001    -10.29
   MgHCO3+        1.070e-015  1.070e-015   -14.970   -14.971    -0.000      4.22
   CaHCO3+        6.285e-016  6.282e-016   -15.202   -15.202    -0.000      8.11
   SrHCO3+        6.182e-016  6.179e-016   -15.209   -15.209    -0.000     (0)  
   BaHCO3+        4.150e-016  4.149e-016   -15.382   -15.382    -0.000     (0)  
   NaHCO3         2.543e-016  2.543e-016   -15.595   -15.595     0.000     19.41
   CaCO3          9.058e-017  9.058e-017   -16.043   -16.043     0.000    -14.71
   MgCO3          4.310e-017  4.310e-017   -16.365   -16.365     0.000    -17.05
   BaCO3          2.074e-017  2.074e-017   -16.683   -16.683     0.000    -11.05
   SrCO3          2.023e-017  2.023e-017   -16.694   -16.694     0.000    -14.27
   NaCO3-         2.663e-019  2.662e-019   -18.575   -18.575    -0.000     -5.10
Ca           1.000e-008
   Ca+2           1.000e-008  9.982e-009    -8.000    -8.001    -0.001    -18.98
   CaOH+          4.916e-014  4.914e-014   -13.308   -13.309    -0.000     (0)  
   CaSO4          1.444e-014  1.444e-014   -13.840   -13.840     0.000      6.05
   CaHCO3+        6.285e-016  6.282e-016   -15.202   -15.202    -0.000      8.11
   CaCO3          9.058e-017  9.058e-017   -16.043   -16.043     0.000    -14.71
   CaHSO4+        2.424e-021  2.423e-021   -20.615   -20.616    -0.000     (0)  
Cl           1.000e-008
   Cl-            1.000e-008  9.996e-009    -8.000    -8.000    -0.000     16.41
H(0)         0.000e+000
   H2             0.000e+000  0.000e+000   -43.354   -43.354     0.000     28.65
K            1.000e-008
   K+             1.000e-008  9.996e-009    -8.000    -8.000    -0.000      7.72
   KSO4-          4.357e-016  4.355e-016   -15.361   -15.361    -0.000     (0)  
Mg           1.000e-008
   Mg+2           1.000e-008  9.982e-009    -8.000    -8.001    -0.001    -20.87
   MgOH+          9.150e-014  9.146e-014   -13.039   -13.039    -0.000     (0)  
   MgSO4          1.157e-014  1.157e-014   -13.937   -13.937     0.000      4.37
   MgHCO3+        1.070e-015  1.070e-015   -14.970   -14.971    -0.000      4.22
   MgCO3          4.310e-017  4.310e-017   -16.365   -16.365     0.000    -17.05
Na           1.000e-008
   Na+            1.000e-008  9.996e-009    -8.000    -8.000    -0.000     -3.42
   NaSO4-         4.208e-016  4.206e-016   -15.376   -15.376    -0.000     17.22
   NaHCO3         2.543e-016  2.543e-016   -15.595   -15.595     0.000     19.41
   NaCO3-         2.663e-019  2.662e-019   -18.575   -18.575    -0.000     -5.10
   NaOH           3.416e-026  3.416e-026   -25.466   -25.466     0.000     (0)  
O(0)         6.633e-015
   O2             3.317e-015  3.317e-015   -14.479   -14.479     0.000     27.49
S(-2)        0.000e+000
   HS-            0.000e+000  0.000e+000  -139.075  -139.075    -0.000     18.39
   H2S            0.000e+000  0.000e+000  -139.195  -139.195     0.000     37.01
   S-2            0.000e+000  0.000e+000  -145.332  -145.332    -0.001     (0)  
S(6)         1.000e-008
   SO4-2          1.000e-008  9.982e-009    -8.000    -8.001    -0.001      8.07
   BaSO4          4.994e-014  4.994e-014   -13.302   -13.302     0.000     (0)  
   HSO4-          2.020e-014  2.019e-014   -13.695   -13.695    -0.000     37.30
   CaSO4          1.444e-014  1.444e-014   -13.840   -13.840     0.000      6.05
   SrSO4          1.409e-014  1.409e-014   -13.851   -13.851     0.000     22.78
   MgSO4          1.157e-014  1.157e-014   -13.937   -13.937     0.000      4.37
   KSO4-          4.357e-016  4.355e-016   -15.361   -15.361    -0.000     (0)  
   NaSO4-         4.208e-016  4.206e-016   -15.376   -15.376    -0.000     17.22
   CaHSO4+        2.424e-021  2.423e-021   -20.615   -20.616    -0.000     (0)  
Sr           1.000e-008
   Sr+2           1.000e-008  9.982e-009    -8.000    -8.001    -0.001    -17.26
   SrOH+          1.519e-014  1.518e-014   -13.818   -13.819    -0.000     (0)  
   SrSO4          1.409e-014  1.409e-014   -13.851   -13.851     0.000     22.78
   SrHCO3+        6.182e-016  6.179e-016   -15.209   -15.209    -0.000     (0)  
   SrCO3          2.023e-017  2.023e-017   -16.694   -16.694     0.000    -14.27

------------------------------Saturation indices-------------------------------

	Phase               SI   log IAP   log K(273 K,   1 atm)

	Anhydrite       -11.97    -16.00   -4.03  CaSO4
	Aragonite       -10.96    -19.18   -8.22  CaCO3
	Barite           -5.52    -16.00  -10.48  BaSO4
	Calcite         -10.80    -19.18   -8.38  CaCO3
	Celestite        -9.47    -16.00   -6.53  SrSO4
	CH4(g)         -139.65   -142.24   -2.59  CH4
	CO2(g)           -7.80     -8.91   -1.12  CO2
	Dolomite        -21.90    -38.36  -16.46  CaMg(CO3)2
	Gypsum          -11.38    -16.00   -4.62  CaSO4:2H2O
	H2(g)           -40.34    -43.35   -3.01  H2
	H2O(g)           -2.21     -0.00    2.21  H2O
	H2S(g)         -138.48   -146.55   -8.07  H2S
	Halite          -17.51    -16.00    1.50  NaCl
	O2(g)           -11.82    -14.48   -2.66  O2
	Strontianite     -9.84    -19.18   -9.34  SrCO3
	Sulfur         -104.39    -98.87    5.52  S
	Sylvite         -16.62    -16.00    0.62  KCl
	Witherite       -10.44    -19.18   -8.74  BaCO3


Reaction step 2.

Using solution 1.	
Using temperature 1.	

-----------------------------Solution composition------------------------------

	Elements           Molality       Moles

	Ba               1.000e-008  1.000e-008
	C                1.075e-008  1.075e-008
	Ca               1.000e-008  1.000e-008
	Cl               1.000e-008  1.000e-008
	K                1.000e-008  1.000e-008
	Mg               1.000e-008  1.000e-008
	Na               1.000e-008  1.000e-008
	S                1.000e-008  1.000e-008
	Sr               1.000e-008  1.000e-008

----------------------------Description of solution----------------------------

                                       pH  =   7.221      Charge balance
                                       pe  =  11.760      Adjusted to redox equilibrium
       Specific Conductance (uS/cm, 12 oC) = 0
                          Density (g/cm3)  =   0.99944
                               Volume (L)  =   1.00056
                        Activity of water  =   1.000
                           Ionic strength  =  1.802e-007
                       Mass of water (kg)  =  1.000e+000
                 Total alkalinity (eq/kg)  =  1.000e-008
                       Total CO2 (mol/kg)  =  1.075e-008
                      Temperature (deg C)  =  12.50
                  Electrical balance (eq)  =  6.000e-008
 Percent error, 100*(Cat-|An|)/(Cat+|An|)  =  23.05
                               Iterations  =  13
                                  Total H  = 1.110124e+002
                                  Total O  = 5.550622e+001

----------------------------Distribution of species----------------------------

                                               Log       Log       Log    mole V
   Species          Molality    Activity  Molality  Activity     Gamma   cm3/mol

   OH-            6.094e-008  6.091e-008    -7.215    -7.215    -0.000     -4.83
   H+             6.017e-008  6.014e-008    -7.221    -7.221    -0.000      0.00
   H2O            5.551e+001  1.000e+000     1.744    -0.000     0.000     18.03
Ba           1.000e-008
   Ba+2           1.000e-008  9.980e-009    -8.000    -8.001    -0.001    -13.70
   BaSO4          4.992e-014  4.992e-014   -13.302   -13.302     0.000     (0)  
   BaOH+          5.626e-015  5.623e-015   -14.250   -14.250    -0.000     (0)  
   BaHCO3+        5.951e-016  5.948e-016   -15.225   -15.226    -0.000     (0)  
   BaCO3          2.144e-017  2.144e-017   -16.669   -16.669     0.000    -10.84
C(-4)        0.000e+000
   CH4            0.000e+000  0.000e+000  -134.533  -134.533     0.000     32.22
C(4)         1.075e-008
   HCO3-          9.219e-009  9.214e-009    -8.035    -8.036    -0.000     23.28
   CO2            1.527e-009  1.527e-009    -8.816    -8.816     0.000     34.29
   CO3-2          5.356e-012  5.346e-012   -11.271   -11.272    -0.001     -6.47
   MgHCO3+        1.036e-015  1.035e-015   -14.985   -14.985    -0.000      5.00
   SrHCO3+        9.175e-016  9.170e-016   -15.037   -15.038    -0.000     (0)  
   CaHCO3+        9.141e-016  9.136e-016   -15.039   -15.039    -0.000      9.06
   BaHCO3+        5.951e-016  5.948e-016   -15.225   -15.226    -0.000     (0)  
   NaHCO3         2.383e-016  2.383e-016   -15.623   -15.623     0.000     19.41
   CaCO3          7.433e-017  7.433e-017   -16.129   -16.129     0.000    -14.64
   MgCO3          4.202e-017  4.202e-017   -16.377   -16.377     0.000    -17.07
   SrCO3          2.354e-017  2.354e-017   -16.628   -16.628     0.000    -14.19
   BaCO3          2.144e-017  2.144e-017   -16.669   -16.669     0.000    -10.84
   NaCO3-         2.267e-019  2.266e-019   -18.644   -18.645    -0.000     -2.29
Ca           1.000e-008
   Ca+2           1.000e-008  9.980e-009    -8.000    -8.001    -0.001    -18.47
   CaOH+          2.755e-014  2.754e-014   -13.560   -13.560    -0.000     (0)  
   CaSO4          1.606e-014  1.606e-014   -13.794   -13.794     0.000      6.93
   CaHCO3+        9.141e-016  9.136e-016   -15.039   -15.039    -0.000      9.06
   CaCO3          7.433e-017  7.433e-017   -16.129   -16.129     0.000    -14.64
   CaHSO4+        5.412e-021  5.410e-021   -20.267   -20.267    -0.000     (0)  
Cl           1.000e-008
   Cl-            1.000e-008  9.995e-009    -8.000    -8.000    -0.000     17.51
H(0)         0.000e+000
   H2             0.000e+000  0.000e+000   -41.056   -41.056     0.000     28.62
K            1.000e-008
   K+             1.000e-008  9.995e-009    -8.000    -8.000    -0.000      8.49
   KSO4-          5.585e-016  5.582e-016   -15.253   -15.253    -0.000     (0)  
Mg           1.000e-008
   Mg+2           1.000e-008  9.980e-009    -8.000    -8.001    -0.001    -21.44
   MgOH+          1.856e-013  1.855e-013   -12.731   -12.732    -0.000     (0)  
   MgSO4          1.669e-014  1.669e-014   -13.778   -13.778     0.000      5.26
   MgHCO3+        1.036e-015  1.035e-015   -14.985   -14.985    -0.000      5.00
   MgCO3          4.202e-017  4.202e-017   -16.377   -16.377     0.000    -17.07
Na           1.000e-008
   Na+            1.000e-008  9.995e-009    -8.000    -8.000    -0.000     -2.20
   NaSO4-         4.605e-016  4.603e-016   -15.337   -15.337    -0.000     18.12
   NaHCO3         2.383e-016  2.383e-016   -15.623   -15.623     0.000     19.41
   NaCO3-         2.267e-019  2.266e-019   -18.644   -18.645    -0.000     -2.29
   NaOH           6.088e-026  6.088e-026   -25.216   -25.216     0.000     (0)  
O(0)         6.633e-015
   O2             3.317e-015  3.317e-015   -14.479   -14.479     0.000     29.24
S(-2)        0.000e+000
   HS-            0.000e+000  0.000e+000  -131.491  -131.491    -0.000     19.80
   H2S            0.000e+000  0.000e+000  -131.587  -131.587     0.000     37.10
   S-2            0.000e+000  0.000e+000  -137.575  -137.576    -0.001     (0)  
S(6)         1.000e-008
   SO4-2          1.000e-008  9.980e-009    -8.000    -8.001    -0.001     11.86
   BaSO4          4.992e-014  4.992e-014   -13.302   -13.302     0.000     (0)  
   HSO4-          4.511e-014  4.508e-014   -13.346   -13.346    -0.000     39.16
   MgSO4          1.669e-014  1.669e-014   -13.778   -13.778     0.000      5.26
   SrSO4          1.666e-014  1.666e-014   -13.778   -13.778     0.000     23.67
   CaSO4          1.606e-014  1.606e-014   -13.794   -13.794     0.000      6.93
   KSO4-          5.585e-016  5.582e-016   -15.253   -15.253    -0.000     (0)  
   NaSO4-         4.605e-016  4.603e-016   -15.337   -15.337    -0.000     18.12
   CaHSO4+        5.412e-021  5.410e-021   -20.267   -20.267    -0.000     (0)  
Sr           1.000e-008
   Sr+2           1.000e-008  9.980e-009    -8.000    -8.001    -0.001    -17.60
   SrSO4          1.666e-014  1.666e-014   -13.778   -13.778     0.000     23.67
   SrOH+          8.515e-015  8.511e-015   -14.070   -14.070    -0.000     (0)  
   SrHCO3+        9.175e-016  9.170e-016   -15.037   -15.038    -0.000     (0)  
   SrCO3          2.354e-017  2.354e-017   -16.628   -16.628     0.000    -14.19

------------------------------Saturation indices-------------------------------

	Phase               SI   log IAP   log K(285 K,   1 atm)

	Anhydrite       -11.86    -16.00   -4.15  CaSO4
	Aragonite       -11.01    -19.27   -8.27  CaCO3
	Barite           -5.81    -16.00  -10.19  BaSO4
	Calcite         -10.85    -19.27   -8.42  CaCO3
	Celestite        -9.41    -16.00   -6.59  SrSO4
	CH4(g)         -131.80   -134.53   -2.73  CH4
	CO2(g)           -7.51     -8.82   -1.30  CO2
	Dolomite        -21.76    -38.55  -16.79  CaMg(CO3)2
	Gypsum          -11.41    -16.00   -4.59  CaSO4:2H2O
	H2(g)           -37.99    -41.06   -3.06  H2
	H2O(g)           -1.84     -0.00    1.84  H2O
	H2S(g)         -130.69   -138.71   -8.03  H2S
	Halite          -17.55    -16.00    1.54  NaCl
	O2(g)           -11.69    -14.48   -2.79  O2
	Strontianite     -9.99    -19.27   -9.28  SrCO3
	Sulfur          -98.81    -93.62    5.19  S
	Sylvite         -16.77    -16.00    0.76  KCl
	Witherite       -10.66    -19.27   -8.61  BaCO3


Reaction step 3.

Using solution 1.	
Using temperature 1.	

-----------------------------Solution composition------------------------------

	Elements           Molality       Moles

	Ba               1.000e-008  1.000e-008
	C                1.075e-008  1.075e-008
	Ca               1.000e-008  1.000e-008
	Cl               1.000e-008  1.000e-008
	K                1.000e-008  1.000e-008
	Mg               1.000e-008  1.000e-008
	Na               1.000e-008  1.000e-008
	S                1.000e-008  1.000e-008
	Sr               1.000e-008  1.000e-008

----------------------------Description of solution----------------------------

                                       pH  =   7.000      Charge balance
                                       pe  =  10.957      Adjusted to redox equilibrium
       Specific Conductance (uS/cm, 25 oC) = 0
                          Density (g/cm3)  =   0.99704
                               Volume (L)  =   1.00297
                        Activity of water  =   1.000
                           Ionic strength  =  2.201e-007
                       Mass of water (kg)  =  1.000e+000
                 Total alkalinity (eq/kg)  =  1.000e-008
                       Total CO2 (mol/kg)  =  1.075e-008
                      Temperature (deg C)  =  25.00
                  Electrical balance (eq)  =  6.000e-008
 Percent error, 100*(Cat-|An|)/(Cat+|An|)  =  17.64
                               Iterations  =  11
                                  Total H  = 1.110124e+002
                                  Total O  = 5.550622e+001

----------------------------Distribution of species----------------------------

                                               Log       Log       Log    mole V
   Species          Molality    Activity  Molality  Activity     Gamma   cm3/mol

   OH-            1.013e-007  1.012e-007    -6.995    -6.995    -0.000     -4.14
   H+             1.001e-007  1.000e-007    -7.000    -7.000    -0.000      0.00
   H2O            5.551e+001  1.000e+000     1.744     0.000     0.000     18.07
Ba           1.000e-008
   Ba+2           1.000e-008  9.978e-009    -8.000    -8.001    -0.001    -12.86
   BaSO4          4.990e-014  4.990e-014   -13.302   -13.302     0.000     (0)  
   BaOH+          3.383e-015  3.381e-015   -14.471   -14.471    -0.000     (0)  
   BaHCO3+        8.393e-016  8.388e-016   -15.076   -15.076    -0.000     (0)  
   BaCO3          2.120e-017  2.120e-017   -16.674   -16.674     0.000    -10.70
C(-4)        0.000e+000
   CH4            0.000e+000  0.000e+000  -127.967  -127.967     0.000     32.22
C(4)         1.075e-008
   HCO3-          8.775e-009  8.770e-009    -8.057    -8.057    -0.000     24.56
   CO2            1.972e-009  1.972e-009    -8.705    -8.705     0.000     30.26
   CO3-2          4.122e-012  4.113e-012   -11.385   -11.386    -0.001     -4.49
   SrHCO3+        1.339e-015  1.339e-015   -14.873   -14.873    -0.000     (0)  
   CaHCO3+        1.117e-015  1.116e-015   -14.952   -14.952    -0.000      9.64
   MgHCO3+        1.024e-015  1.024e-015   -14.990   -14.990    -0.000      5.45
   BaHCO3+        8.393e-016  8.388e-016   -15.076   -15.076    -0.000     (0)  
   NaHCO3         2.202e-016  2.202e-016   -15.657   -15.657     0.000     19.41
   CaCO3          6.894e-017  6.894e-017   -16.162   -16.162     0.000    -14.60
   MgCO3          3.916e-017  3.916e-017   -16.407   -16.407     0.000    -17.09
   SrCO3          2.620e-017  2.620e-017   -16.582   -16.582     0.000    -14.13
   BaCO3          2.120e-017  2.120e-017   -16.674   -16.674     0.000    -10.70
   NaCO3-         1.837e-019  1.836e-019   -18.736   -18.736    -0.000     -0.69
Ca           1.000e-008
   Ca+2           1.000e-008  9.978e-009    -8.000    -8.001    -0.001    -18.25
   CaSO4          1.770e-014  1.770e-014   -13.752   -13.752     0.000      7.50
   CaOH+          1.657e-014  1.656e-014   -13.781   -13.781    -0.000     (0)  
   CaHCO3+        1.117e-015  1.116e-015   -14.952   -14.952    -0.000      9.64
   CaCO3          6.894e-017  6.894e-017   -16.162   -16.162     0.000    -14.60
   CaHSO4+        1.164e-020  1.164e-020   -19.934   -19.934    -0.000     (0)  
Cl           1.000e-008
   Cl-            1.000e-008  9.994e-009    -8.000    -8.000    -0.000     18.05
H(0)         1.730e-039
   H2             8.649e-040  8.649e-040   -39.063   -39.063     0.000     28.61
K            1.000e-008
   K+             1.000e-008  9.994e-009    -8.000    -8.000    -0.000      8.98
   KSO4-          7.011e-016  7.007e-016   -15.154   -15.154    -0.000     (0)  
Mg           1.000e-008
   Mg+2           1.000e-008  9.978e-009    -8.000    -8.001    -0.001    -21.93
   MgOH+          3.625e-013  3.623e-013   -12.441   -12.441    -0.000     (0)  
   MgSO4          2.334e-014  2.334e-014   -13.632   -13.632     0.000      5.84
   MgHCO3+        1.024e-015  1.024e-015   -14.990   -14.990    -0.000      5.45
   MgCO3          3.916e-017  3.916e-017   -16.407   -16.407     0.000    -17.09
Na           1.000e-008
   Na+            1.000e-008  9.994e-009    -8.000    -8.000    -0.000     -1.42
   NaSO4-         5.001e-016  4.998e-016   -15.301   -15.301    -0.000     18.38
   NaHCO3         2.202e-016  2.202e-016   -15.657   -15.657     0.000     19.41
   NaCO3-         1.837e-019  1.836e-019   -18.736   -18.736    -0.000     -0.69
   NaOH           1.012e-025  1.012e-025   -24.995   -24.995     0.000     (0)  
O(0)         1.115e-014
   O2             5.573e-015  5.573e-015   -14.254   -14.254     0.000     30.40
S(-2)        0.000e+000
   HS-            0.000e+000  0.000e+000  -125.003  -125.003    -0.000     20.57
   H2S            0.000e+000  0.000e+000  -125.061  -125.061     0.000     37.16
   S-2            0.000e+000  0.000e+000  -130.920  -130.921    -0.001     (0)  
S(6)         1.000e-008
   SO4-2          1.000e-008  9.978e-009    -8.000    -8.001    -0.001     13.89
   HSO4-          9.706e-014  9.701e-014   -13.013   -13.013    -0.000     40.25
   BaSO4          4.990e-014  4.990e-014   -13.302   -13.302     0.000     (0)  
   MgSO4          2.334e-014  2.334e-014   -13.632   -13.632     0.000      5.84
   SrSO4          1.941e-014  1.941e-014   -13.712   -13.712     0.000     24.24
   CaSO4          1.770e-014  1.770e-014   -13.752   -13.752     0.000      7.50
   KSO4-          7.011e-016  7.007e-016   -15.154   -15.154    -0.000     (0)  
   NaSO4-         5.001e-016  4.998e-016   -15.301   -15.301    -0.000     18.38
   CaHSO4+        1.164e-020  1.164e-020   -19.934   -19.934    -0.000     (0)  
Sr           1.000e-008
   Sr+2           1.000e-008  9.978e-009    -8.000    -8.001    -0.001    -17.90
   SrSO4          1.941e-014  1.941e-014   -13.712   -13.712     0.000     24.24
   SrOH+          5.120e-015  5.117e-015   -14.291   -14.291    -0.000     (0)  
   SrHCO3+        1.339e-015  1.339e-015   -14.873   -14.873    -0.000     (0)  
   SrCO3          2.620e-017  2.620e-017   -16.582   -16.582     0.000    -14.13

------------------------------Saturation indices-------------------------------

	Phase               SI   log IAP   log K(298 K,   1 atm)

	Anhydrite       -11.72    -16.00   -4.28  CaSO4
	Aragonite       -11.05    -19.39   -8.34  CaCO3
	Barite           -6.03    -16.00   -9.97  BaSO4
	Calcite         -10.91    -19.39   -8.48  CaCO3
	Celestite        -9.34    -16.00   -6.66  SrSO4
	CH4(g)         -125.12   -127.97   -2.84  CH4
	CO2(g)           -7.24     -8.71   -1.46  CO2
	Dolomite        -21.68    -38.77  -17.09  CaMg(CO3)2
	Gypsum          -11.42    -16.00   -4.58  CaSO4:2H2O
	H2(g)           -35.96    -39.06   -3.10  H2
	H2O(g)           -1.50      0.00    1.50  H2O
	H2S(g)         -124.01   -132.00   -7.99  H2S
	Halite          -17.57    -16.00    1.57  NaCl
	O2(g)           -11.36    -14.25   -2.89  O2
	Strontianite    -10.12    -19.39   -9.27  SrCO3
	Sulfur          -94.03    -89.15    4.88  S
	Sylvite         -16.90    -16.00    0.90  KCl
	Witherite       -10.83    -19.39   -8.56  BaCO3


Reaction step 4.

Using solution 1.	
Using temperature 1.	

-----------------------------Solution composition------------------------------

	Elements           Molality       Moles

	Ba               1.000e-008  1.000e-008
	C                1.075e-008  1.075e-008
	Ca               1.000e-008  1.000e-008
	Cl               1.000e-008  1.000e-008
	K                1.000e-008  1.000e-008
	Mg               1.000e-008  1.000e-008
	Na               1.000e-008  1.000e-008
	S                1.000e-008  1.000e-008
	Sr               1.000e-008  1.000e-008

----------------------------Description of solution----------------------------

                                       pH  =   6.805      Charge balance
                                       pe  =  10.101      Adjusted to redox equilibrium
       Specific Conductance (uS/cm, 37 oC) = 0
                          Density (g/cm3)  =   0.99314
                               Volume (L)  =   1.00690
                        Activity of water  =   1.000
                           Ionic strength  =  2.767e-007
                       Mass of water (kg)  =  1.000e+000
                 Total alkalinity (eq/kg)  =  1.000e-008
                       Total CO2 (mol/kg)  =  1.075e-008
                      Temperature (deg C)  =  37.50
                  Electrical balance (eq)  =  6.000e-008
 Percent error, 100*(Cat-|An|)/(Cat+|An|)  =  13.24
                               Iterations  =  11
                                  Total H  = 1.110124e+002
                                  Total O  = 5.550622e+001

----------------------------Distribution of species----------------------------

                                               Log       Log       Log    mole V
   Species          Molality    Activity  Molality  Activity     Gamma   cm3/mol

   OH-            1.585e-007  1.584e-007    -6.800    -6.800    -0.000     -3.84
   H+             1.567e-007  1.566e-007    -6.805    -6.805    -0.000      0.00
   H2O            5.551e+001  1.000e+000     1.744    -0.000     0.000     18.14
Ba           1.000e-008
   Ba+2           1.000e-008  9.975e-009    -8.000    -8.001    -0.001    -12.31
   BaSO4          4.986e-014  4.986e-014   -13.302   -13.302     0.000     (0)  
   BaOH+          2.160e-015  2.159e-015   -14.666   -14.666    -0.000     (0)  
   BaHCO3+        1.159e-015  1.158e-015   -14.936   -14.936    -0.000     (0)  
   BaCO3          2.006e-017  2.006e-017   -16.698   -16.698     0.000    -10.60
C(-4)        0.000e+000
   CH4            0.000e+000  0.000e+000  -121.112  -121.112     0.000     32.22
C(4)         1.075e-008
   HCO3-          8.177e-009  8.171e-009    -8.087    -8.088    -0.000     25.28
   CO2            2.571e-009  2.571e-009    -8.590    -8.590     0.000     27.44
   CO3-2          3.036e-012  3.029e-012   -11.518   -11.519    -0.001     -3.63
   SrHCO3+        1.914e-015  1.913e-015   -14.718   -14.718    -0.000     (0)  
   CaHCO3+        1.205e-015  1.205e-015   -14.919   -14.919    -0.000     10.02
   BaHCO3+        1.159e-015  1.158e-015   -14.936   -14.936    -0.000     (0)  
   MgHCO3+        1.024e-015  1.024e-015   -14.990   -14.990    -0.000      5.70
   NaHCO3         1.996e-016  1.996e-016   -15.700   -15.700     0.000     19.41
   CaCO3          6.838e-017  6.838e-017   -16.165   -16.165     0.000    -14.56
   MgCO3          3.493e-017  3.493e-017   -16.457   -16.457     0.000    -17.09
   SrCO3          2.790e-017  2.790e-017   -16.554   -16.554     0.000    -14.09
   BaCO3          2.006e-017  2.006e-017   -16.698   -16.698     0.000    -10.60
   NaCO3-         1.419e-019  1.418e-019   -18.848   -18.848    -0.000      0.19
Ca           1.000e-008
   Ca+2           1.000e-008  9.975e-009    -8.000    -8.001    -0.001    -18.23
   CaSO4          1.936e-014  1.936e-014   -13.713   -13.713     0.000      7.90
   CaOH+          1.058e-014  1.057e-014   -13.976   -13.976    -0.000     (0)  
   CaHCO3+        1.205e-015  1.205e-015   -14.919   -14.919    -0.000     10.02
   CaCO3          6.838e-017  6.838e-017   -16.165   -16.165     0.000    -14.56
   CaHSO4+        2.425e-020  2.423e-020   -19.615   -19.616    -0.000     (0)  
Cl           1.000e-008
   Cl-            1.000e-008  9.994e-009    -8.000    -8.000    -0.000     18.24
H(0)         1.931e-037
   H2             9.654e-038  9.654e-038   -37.015   -37.015     0.000     28.60
K            1.000e-008
   K+             1.000e-008  9.994e-009    -8.000    -8.000    -0.000      9.31
   KSO4-          8.640e-016  8.635e-016   -15.063   -15.064    -0.000     (0)  
Mg           1.000e-008
   Mg+2           9.999e-009  9.974e-009    -8.000    -8.001    -0.001    -22.41
   MgOH+          6.838e-013  6.834e-013   -12.165   -12.165    -0.000     (0)  
   MgSO4          3.177e-014  3.177e-014   -13.498   -13.498     0.000      6.24
   MgHCO3+        1.024e-015  1.024e-015   -14.990   -14.990    -0.000      5.70
   MgCO3          3.493e-017  3.493e-017   -16.457   -16.457     0.000    -17.09
Na           1.000e-008
   Na+            1.000e-008  9.994e-009    -8.000    -8.000    -0.000     -0.87
   NaSO4-         5.394e-016  5.391e-016   -15.268   -15.268    -0.000     18.21
   NaHCO3         1.996e-016  1.996e-016   -15.700   -15.700     0.000     19.41
   NaCO3-         1.419e-019  1.418e-019   -18.848   -18.848    -0.000      0.19
   NaOH           1.583e-025  1.583e-025   -24.801   -24.801     0.000     (0)  
O(0)         6.659e-015
   O2             3.329e-015  3.329e-015   -14.478   -14.478     0.000     31.25
S(-2)        0.000e+000
   HS-            0.000e+000  0.000e+000  -118.184  -118.184    -0.000     20.97
   H2S            0.000e+000  0.000e+000  -118.192  -118.192     0.000     37.21
   S-2            0.000e+000  0.000e+000  -123.939  -123.940    -0.001     (0)  
S(6)         1.000e-008
   SO4-2          1.000e-008  9.974e-009    -8.000    -8.001    -0.001     14.89
   HSO4-          2.022e-013  2.021e-013   -12.694   -12.695    -0.000     40.89
   BaSO4          4.986e-014  4.986e-014   -13.302   -13.302     0.000     (0)  
   MgSO4          3.177e-014  3.177e-014   -13.498   -13.498     0.000      6.24
   SrSO4          2.234e-014  2.234e-014   -13.651   -13.651     0.000     24.63
   CaSO4          1.936e-014  1.936e-014   -13.713   -13.713     0.000      7.90
   KSO4-          8.640e-016  8.635e-016   -15.063   -15.064    -0.000     (0)  
   NaSO4-         5.394e-016  5.391e-016   -15.268   -15.268    -0.000     18.21
   CaHSO4+        2.425e-020  2.423e-020   -19.615   -19.616    -0.000     (0)  
Sr           1.000e-008
   Sr+2           1.000e-008  9.975e-009    -8.000    -8.001    -0.001    -18.20
   SrSO4          2.234e-014  2.234e-014   -13.651   -13.651     0.000     24.63
   SrOH+          3.270e-015  3.268e-015   -14.486   -14.486    -0.000     (0)  
   SrHCO3+        1.914e-015  1.913e-015   -14.718   -14.718    -0.000     (0)  
   SrCO3          2.790e-017  2.790e-017   -16.554   -16.554     0.000    -14.09

------------------------------Saturation indices-------------------------------

	Phase               SI   log IAP   log K(310 K,   1 atm)

	Anhydrite       -11.58    -16.00   -4.42  CaSO4
	Aragonite       -11.09    -19.52   -8.43  CaCO3
	Barite           -6.20    -16.00   -9.80  BaSO4
	Calcite         -10.96    -19.52   -8.56  CaCO3
	Celestite        -9.27    -16.00   -6.73  SrSO4
	CH4(g)         -118.19   -121.11   -2.93  CH4
	CO2(g)           -7.00     -8.59   -1.59  CO2
	Dolomite        -21.67    -39.04  -17.37  CaMg(CO3)2
	Gypsum          -11.41    -16.00   -4.59  CaSO4:2H2O
	H2(g)           -33.89    -37.02   -3.12  H2
	H2O(g)           -1.20     -0.00    1.20  H2O
	H2S(g)         -117.02   -124.99   -7.97  H2S
	Halite          -17.59    -16.00    1.58  NaCl
	O2(g)           -11.51    -14.48   -2.97  O2
	Strontianite    -10.22    -19.52   -9.30  SrCO3
	Sulfur          -88.98    -84.38    4.60  S
	Sylvite         -17.02    -16.00    1.02  KCl
	Witherite       -10.95    -19.52   -8.57  BaCO3


Reaction step 5.

Using solution 1.	
Using temperature 1.	

-----------------------------Solution composition------------------------------

	Elements           Molality       Moles

	Ba               1.000e-008  1.000e-008
	C                1.075e-008  1.075e-008
	Ca               1.000e-008  1.000e-008
	Cl               1.000e-008  1.000e-008
	K                1.000e-008  1.000e-008
	Mg               1.000e-008  1.000e-008
	Na               1.000e-008  1.000e-008
	S                1.000e-008  1.000e-008
	Sr               1.000e-008  1.000e-008

----------------------------Description of solution----------------------------

                                       pH  =   6.633      Charge balance
                                       pe  =   9.368      Adjusted to redox equilibrium
       Specific Conductance (uS/cm, 50 oC) = 0
                          Density (g/cm3)  =   0.98803
                               Volume (L)  =   1.01212
                        Activity of water  =   1.000
                           Ionic strength  =  3.528e-007
                       Mass of water (kg)  =  1.000e+000
                 Total alkalinity (eq/kg)  =  1.000e-008
                       Total CO2 (mol/kg)  =  1.075e-008
                      Temperature (deg C)  =  50.00
                  Electrical balance (eq)  =  6.000e-008
 Percent error, 100*(Cat-|An|)/(Cat+|An|)  =   9.91
                               Iterations  =  12
                                  Total H  = 1.110124e+002
                                  Total O  = 5.550622e+001

----------------------------Distribution of species----------------------------

                                               Log       Log       Log    mole V
   Species          Molality    Activity  Molality  Activity     Gamma   cm3/mol

   OH-            2.354e-007  2.352e-007    -6.628    -6.628    -0.000     -3.84
   H+             2.328e-007  2.327e-007    -6.633    -6.633    -0.000      0.00
   H2O            5.551e+001  1.000e+000     1.744    -0.000     0.000     18.23
Ba           1.000e-008
   Ba+2           1.000e-008  9.971e-009    -8.000    -8.001    -0.001    -11.96
   BaSO4          4.982e-014  4.982e-014   -13.303   -13.303     0.000     (0)  
   BaHCO3+        1.557e-015  1.556e-015   -14.808   -14.808    -0.000     (0)  
   BaOH+          1.453e-015  1.452e-015   -14.838   -14.838    -0.000     (0)  
   BaCO3          1.814e-017  1.814e-017   -16.741   -16.741     0.000    -10.52
C(-4)        0.000e+000
   CH4            0.000e+000  0.000e+000  -115.340  -115.340     0.000     32.22
C(4)         1.075e-008
   HCO3-          7.418e-009  7.413e-009    -8.130    -8.130    -0.000     25.63
   CO2            3.331e-009  3.331e-009    -8.477    -8.477     0.000     25.37
   CO3-2          2.138e-012  2.132e-012   -11.670   -11.671    -0.001     -3.56
   SrHCO3+        2.663e-015  2.661e-015   -14.575   -14.575    -0.000     (0)  
   BaHCO3+        1.557e-015  1.556e-015   -14.808   -14.808    -0.000     (0)  
   CaHCO3+        1.192e-015  1.192e-015   -14.924   -14.924    -0.000     10.26
   MgHCO3+        1.024e-015  1.024e-015   -14.990   -14.990    -0.000      5.82
   NaHCO3         1.766e-016  1.766e-016   -15.753   -15.753     0.000     19.41
   CaCO3          6.931e-017  6.931e-017   -16.159   -16.159     0.000    -14.53
   MgCO3          2.978e-017  2.978e-017   -16.526   -16.526     0.000    -17.10
   SrCO3          2.840e-017  2.840e-017   -16.547   -16.547     0.000    -14.05
   BaCO3          1.814e-017  1.814e-017   -16.741   -16.741     0.000    -10.52
   NaCO3-         1.044e-019  1.043e-019   -18.981   -18.982    -0.000      0.60
Ca           1.000e-008
   Ca+2           1.000e-008  9.971e-009    -8.000    -8.001    -0.001    -18.35
   CaSO4          2.102e-014  2.102e-014   -13.677   -13.677     0.000      8.19
   CaOH+          7.117e-015  7.112e-015   -14.148   -14.148    -0.000     (0)  
   CaHCO3+        1.192e-015  1.192e-015   -14.924   -14.924    -0.000     10.26
   CaCO3          6.931e-017  6.931e-017   -16.159   -16.159     0.000    -14.53
   CaHSO4+        4.905e-020  4.901e-020   -19.309   -19.310    -0.000     (0)  
Cl           1.000e-008
   Cl-            1.000e-008  9.993e-009    -8.000    -8.000    -0.000     18.20
H(0)         1.118e-035
   H2             5.588e-036  5.588e-036   -35.253   -35.253     0.000     28.59
K            1.000e-008
   K+             1.000e-008  9.993e-009    -8.000    -8.000    -0.000      9.54
   KSO4-          1.048e-015  1.047e-015   -14.980   -14.980    -0.000     (0)  
Mg           1.000e-008
   Mg+2           9.999e-009  9.970e-009    -8.000    -8.001    -0.001    -22.91
   MgOH+          1.250e-012  1.249e-012   -11.903   -11.903    -0.000     (0)  
   MgSO4          4.221e-014  4.221e-014   -13.375   -13.375     0.000      6.53
   MgHCO3+        1.024e-015  1.024e-015   -14.990   -14.990    -0.000      5.82
   MgCO3          2.978e-017  2.978e-017   -16.526   -16.526     0.000    -17.10
Na           1.000e-008
   Na+            1.000e-008  9.993e-009    -8.000    -8.000    -0.000     -0.47
   NaSO4-         5.784e-016  5.780e-016   -15.238   -15.238    -0.000     17.72
   NaHCO3         1.766e-016  1.766e-016   -15.753   -15.753     0.000     19.41
   NaCO3-         1.044e-019  1.043e-019   -18.981   -18.982    -0.000      0.60
   NaOH           2.351e-025  2.351e-025   -24.629   -24.629     0.000     (0)  
O(0)         7.421e-015
   O2             3.711e-015  3.711e-015   -14.431   -14.431     0.000     31.92
S(-2)        0.000e+000
   H2S            0.000e+000  0.000e+000  -112.353  -112.353     0.000     37.24
   HS-            0.000e+000  0.000e+000  -112.407  -112.407    -0.000     21.10
   S-2            0.000e+000  0.000e+000  -118.004  -118.005    -0.001     (0)  
S(6)         1.000e-008
   SO4-2          9.999e-009  9.970e-009    -8.000    -8.001    -0.001     15.15
   HSO4-          4.092e-013  4.089e-013   -12.388   -12.388    -0.000     41.23
   BaSO4          4.982e-014  4.982e-014   -13.303   -13.303     0.000     (0)  
   MgSO4          4.221e-014  4.221e-014   -13.375   -13.375     0.000      6.53
   SrSO4          2.543e-014  2.543e-014   -13.595   -13.595     0.000     24.93
   CaSO4          2.102e-014  2.102e-014   -13.677   -13.677     0.000      8.19
   KSO4-          1.048e-015  1.047e-015   -14.980   -14.980    -0.000     (0)  
   NaSO4-         5.784e-016  5.780e-016   -15.238   -15.238    -0.000     17.72
   CaHSO4+        4.905e-020  4.901e-020   -19.309   -19.310    -0.000     (0)  
Sr           1.000e-008
   Sr+2           1.000e-008  9.971e-009    -8.000    -8.001    -0.001    -18.51
   SrSO4          2.543e-014  2.543e-014   -13.595   -13.595     0.000     24.93
   SrHCO3+        2.663e-015  2.661e-015   -14.575   -14.575    -0.000     (0)  
   SrOH+          2.199e-015  2.198e-015   -14.658   -14.658    -0.000     (0)  
   SrCO3          2.840e-017  2.840e-017   -16.547   -16.547     0.000    -14.05

------------------------------Saturation indices-------------------------------

	Phase               SI   log IAP   log K(323 K,   1 atm)

	Anhydrite       -11.43    -16.00   -4.58  CaSO4
	Aragonite       -11.14    -19.67   -8.54  CaCO3
	Barite           -6.33    -16.00   -9.68  BaSO4
	Calcite         -11.01    -19.67   -8.66  CaCO3
	Celestite        -9.20    -16.00   -6.80  SrSO4
	CH4(g)         -112.35   -115.34   -2.99  CH4
	CO2(g)           -6.78     -8.48   -1.70  CO2
	Dolomite        -21.72    -39.34  -17.63  CaMg(CO3)2
	Gypsum          -11.38    -16.00   -4.62  CaSO4:2H2O
	H2(g)           -32.12    -35.25   -3.14  H2
	H2O(g)           -0.92     -0.00    0.92  H2O
	H2S(g)         -111.09   -119.04   -7.95  H2S
	Halite          -17.59    -16.00    1.59  NaCl
	O2(g)           -11.40    -14.43   -3.03  O2
	Strontianite    -10.30    -19.67   -9.37  SrCO3
	Sulfur          -84.69    -80.35    4.34  S
	Sylvite         -17.14    -16.00    1.14  KCl
	Witherite       -11.06    -19.67   -8.61  BaCO3


Reaction step 6.

Using solution 1.	
Using temperature 1.	

-----------------------------Solution composition------------------------------

	Elements           Molality       Moles

	Ba               1.000e-008  1.000e-008
	C                1.075e-008  1.075e-008
	Ca               1.000e-008  1.000e-008
	Cl               1.000e-008  1.000e-008
	K                1.000e-008  1.000e-008
	Mg               1.000e-008  1.000e-008
	Na               1.000e-008  1.000e-008
	S                1.000e-008  1.000e-008
	Sr               1.000e-008  1.000e-008

----------------------------Description of solution----------------------------

                                       pH  =   6.481      Charge balance
                                       pe  =   8.660      Adjusted to redox equilibrium
       Specific Conductance (uS/cm, 62 oC) = 0
                          Density (g/cm3)  =   0.98189
                               Volume (L)  =   1.01845
                        Activity of water  =   1.000
                           Ionic strength  =  4.507e-007
                       Mass of water (kg)  =  1.000e+000
                 Total alkalinity (eq/kg)  =  1.000e-008
                       Total CO2 (mol/kg)  =  1.075e-008
                      Temperature (deg C)  =  62.50
                  Electrical balance (eq)  =  6.000e-008
 Percent error, 100*(Cat-|An|)/(Cat+|An|)  =   7.49
                               Iterations  =  10
                                  Total H  = 1.110124e+002
                                  Total O  = 5.550622e+001

----------------------------Distribution of species----------------------------

                                               Log       Log       Log    mole V
   Species          Molality    Activity  Molality  Activity     Gamma   cm3/mol

   OH-            3.342e-007  3.339e-007    -6.476    -6.476    -0.000     -4.06
   H+             3.307e-007  3.304e-007    -6.481    -6.481    -0.000      0.00
   H2O            5.551e+001  1.000e+000     1.744    -0.000     0.000     18.35
Ba           1.000e-008
   Ba+2           1.000e-008  9.966e-009    -8.000    -8.001    -0.001    -11.73
   BaSO4          4.977e-014  4.977e-014   -13.303   -13.303     0.000     (0)  
   BaHCO3+        2.027e-015  2.025e-015   -14.693   -14.694    -0.000     (0)  
   BaOH+          1.023e-015  1.022e-015   -14.990   -14.991    -0.000     (0)  
   BaCO3          1.566e-017  1.566e-017   -16.805   -16.805     0.000    -10.46
C(-4)        0.000e+000
   CH4            0.000e+000  0.000e+000  -109.858  -109.858     0.000     32.22
C(4)         1.075e-008
   HCO3-          6.518e-009  6.513e-009    -8.186    -8.186    -0.000     25.69
   CO2            4.231e-009  4.231e-009    -8.374    -8.374     0.000     23.78
   CO3-2          1.438e-012  1.433e-012   -11.842   -11.844    -0.001     -4.13
   SrHCO3+        3.587e-015  3.584e-015   -14.445   -14.446    -0.000     (0)  
   BaHCO3+        2.027e-015  2.025e-015   -14.693   -14.694    -0.000     (0)  
   CaHCO3+        1.114e-015  1.113e-015   -14.953   -14.954    -0.000     10.41
   MgHCO3+        1.015e-015  1.014e-015   -14.994   -14.994    -0.000      5.84
   NaHCO3         1.516e-016  1.516e-016   -15.819   -15.819     0.000     19.41
   CaCO3          6.914e-017  6.914e-017   -16.160   -16.160     0.000    -14.51
   SrCO3          2.759e-017  2.759e-017   -16.559   -16.559     0.000    -14.02
   MgCO3          2.423e-017  2.423e-017   -16.616   -16.616     0.000    -17.09
   BaCO3          1.566e-017  1.566e-017   -16.805   -16.805     0.000    -10.46
   NaCO3-         7.302e-020  7.296e-020   -19.137   -19.137    -0.000      0.64
Ca           1.000e-008
   Ca+2           1.000e-008  9.966e-009    -8.000    -8.001    -0.001    -18.59
   CaSO4          2.267e-014  2.267e-014   -13.644   -13.644     0.000      8.42
   CaOH+          5.010e-015  5.006e-015   -14.300   -14.301    -0.000     (0)  
   CaHCO3+        1.114e-015  1.113e-015   -14.953   -14.954    -0.000     10.41
   CaCO3          6.914e-017  6.914e-017   -16.160   -16.160     0.000    -14.51
   CaHSO4+        9.667e-020  9.659e-020   -19.015   -19.015    -0.000     (0)  
Cl           1.000e-008
   Cl-            1.000e-008  9.992e-009    -8.000    -8.000    -0.000     17.95
H(0)         5.318e-034
   H2             2.659e-034  2.659e-034   -33.575   -33.575     0.000     28.58
K            1.000e-008
   K+             1.000e-008  9.992e-009    -8.000    -8.000    -0.000      9.71
   KSO4-          1.252e-015  1.251e-015   -14.902   -14.903    -0.000     (0)  
Mg           1.000e-008
   Mg+2           9.998e-009  9.964e-009    -8.000    -8.002    -0.001    -23.46
   MgOH+          2.219e-012  2.217e-012   -11.654   -11.654    -0.000     (0)  
   MgSO4          5.489e-014  5.489e-014   -13.260   -13.260     0.000      6.76
   MgHCO3+        1.015e-015  1.014e-015   -14.994   -14.994    -0.000      5.84
   MgCO3          2.423e-017  2.423e-017   -16.616   -16.616     0.000    -17.09
Na           1.000e-008
   Na+            1.000e-008  9.992e-009    -8.000    -8.000    -0.000     -0.16
   NaSO4-         6.169e-016  6.164e-016   -15.210   -15.210    -0.000     16.93
   NaHCO3         1.516e-016  1.516e-016   -15.819   -15.819     0.000     19.41
   NaCO3-         7.302e-020  7.296e-020   -19.137   -19.137    -0.000      0.64
   NaOH           3.336e-025  3.336e-025   -24.477   -24.477     0.000     (0)  
O(0)         6.633e-015
   O2             3.317e-015  3.317e-015   -14.479   -14.479     0.000     32.49
S(-2)        0.000e+000
   H2S            0.000e+000  0.000e+000  -106.756  -106.756     0.000     37.26
   HS-            0.000e+000  0.000e+000  -106.882  -106.882    -0.000     21.02
   S-2            0.000e+000  0.000e+000  -112.327  -112.329    -0.001     (0)  
S(6)         1.000e-008
   SO4-2          9.999e-009  9.965e-009    -8.000    -8.002    -0.001     14.85
   HSO4-          8.068e-013  8.061e-013   -12.093   -12.094    -0.000     41.35
   MgSO4          5.489e-014  5.489e-014   -13.260   -13.260     0.000      6.76
   BaSO4          4.977e-014  4.977e-014   -13.303   -13.303     0.000     (0)  
   SrSO4          2.866e-014  2.866e-014   -13.543   -13.543     0.000     25.15
   CaSO4          2.267e-014  2.267e-014   -13.644   -13.644     0.000      8.42
   KSO4-          1.252e-015  1.251e-015   -14.902   -14.903    -0.000     (0)  
   NaSO4-         6.169e-016  6.164e-016   -15.210   -15.210    -0.000     16.93
   CaHSO4+        9.667e-020  9.659e-020   -19.015   -19.015    -0.000     (0)  
Sr           1.000e-008
   Sr+2           1.000e-008  9.966e-009    -8.000    -8.001    -0.001    -18.85
   SrSO4          2.866e-014  2.866e-014   -13.543   -13.543     0.000     25.15
   SrHCO3+        3.587e-015  3.584e-015   -14.445   -14.446    -0.000     (0)  
   SrOH+          1.548e-015  1.547e-015   -14.810   -14.811    -0.000     (0)  
   SrCO3          2.759e-017  2.759e-017   -16.559   -16.559     0.000    -14.02

------------------------------Saturation indices-------------------------------

	Phase               SI   log IAP   log K(335 K,   1 atm)

	Anhydrite       -11.26    -16.00   -4.74  CaSO4
	Aragonite       -11.18    -19.85   -8.67  CaCO3
	Barite           -6.41    -16.00   -9.59  BaSO4
	Calcite         -11.06    -19.85   -8.78  CaCO3
	Celestite        -9.12    -16.00   -6.88  SrSO4
	CH4(g)         -106.83   -109.86   -3.03  CH4
	CO2(g)           -6.59     -8.37   -1.78  CO2
	Dolomite        -21.83    -39.69  -17.86  CaMg(CO3)2
	Gypsum          -11.34    -16.00   -4.66  CaSO4:2H2O
	H2(g)           -30.44    -33.58   -3.14  H2
	H2O(g)           -0.66     -0.00    0.66  H2O
	H2S(g)         -105.43   -113.36   -7.94  H2S
	Halite          -17.59    -16.00    1.59  NaCl
	O2(g)           -11.41    -14.48   -3.07  O2
	Strontianite    -10.38    -19.85   -9.47  SrCO3
	Sulfur          -80.58    -76.47    4.10  S
	Sylvite         -17.25    -16.00    1.24  KCl
	Witherite       -11.16    -19.85   -8.69  BaCO3


Reaction step 7.

Using solution 1.	
Using temperature 1.	

-----------------------------Solution composition------------------------------

	Elements           Molality       Moles

	Ba               1.000e-008  1.000e-008
	C                1.075e-008  1.075e-008
	Ca               1.000e-008  1.000e-008
	Cl               1.000e-008  1.000e-008
	K                1.000e-008  1.000e-008
	Mg               1.000e-008  1.000e-008
	Na               1.000e-008  1.000e-008
	S                1.000e-008  1.000e-008
	Sr               1.000e-008  1.000e-008

----------------------------Description of solution----------------------------

                                       pH  =   6.346      Charge balance
                                       pe  =   8.033      Adjusted to redox equilibrium
       Specific Conductance (uS/cm, 75 oC) = 0
                          Density (g/cm3)  =   0.97484
                               Volume (L)  =   1.02581
                        Activity of water  =   1.000
                           Ionic strength  =  5.712e-007
                       Mass of water (kg)  =  1.000e+000
                 Total alkalinity (eq/kg)  =  1.000e-008
                       Total CO2 (mol/kg)  =  1.075e-008
                      Temperature (deg C)  =  75.00
                  Electrical balance (eq)  =  6.000e-008
 Percent error, 100*(Cat-|An|)/(Cat+|An|)  =   5.76
                               Iterations  =  10
                                  Total H  = 1.110124e+002
                                  Total O  = 5.550622e+001

----------------------------Distribution of species----------------------------

                                               Log       Log       Log    mole V
   Species          Molality    Activity  Molality  Activity     Gamma   cm3/mol

   OH-            4.557e-007  4.553e-007    -6.341    -6.342    -0.000     -4.48
   H+             4.513e-007  4.508e-007    -6.346    -6.346    -0.000      0.00
   H2O            5.551e+001  1.000e+000     1.744    -0.000     0.000     18.48
Ba           1.000e-008
   Ba+2           1.000e-008  9.961e-009    -8.000    -8.002    -0.002    -11.61
   BaSO4          4.972e-014  4.972e-014   -13.303   -13.303     0.000     (0)  
   BaHCO3+        2.546e-015  2.543e-015   -14.594   -14.595    -0.000     (0)  
   BaOH+          7.494e-016  7.487e-016   -15.125   -15.126    -0.000     (0)  
   BaCO3          1.289e-017  1.289e-017   -16.890   -16.890     0.000    -10.41
C(-4)        0.000e+000
   CH4            0.000e+000  0.000e+000  -105.118  -105.118     0.000     32.22
C(4)         1.075e-008
   HCO3-          5.526e-009  5.521e-009    -8.258    -8.258    -0.000     25.52
   CO2            5.224e-009  5.224e-009    -8.282    -8.282     0.000     22.52
   CO3-2          9.214e-013  9.178e-013   -12.036   -12.037    -0.002     -5.26
   SrHCO3+        4.663e-015  4.658e-015   -14.331   -14.332    -0.000     (0)  
   BaHCO3+        2.546e-015  2.543e-015   -14.594   -14.595    -0.000     (0)  
   CaHCO3+        1.006e-015  1.005e-015   -14.998   -14.998    -0.000     10.49
   MgHCO3+        9.892e-016  9.882e-016   -15.005   -15.005    -0.000      5.77
   NaHCO3         1.257e-016  1.257e-016   -15.901   -15.901     0.000     19.41
   CaCO3          6.592e-017  6.592e-017   -16.181   -16.181     0.000    -14.48
   SrCO3          2.555e-017  2.555e-017   -16.593   -16.593     0.000    -13.99
   MgCO3          1.879e-017  1.879e-017   -16.726   -16.726     0.000    -17.09
   BaCO3          1.289e-017  1.289e-017   -16.890   -16.890     0.000    -10.41
   NaCO3-         4.858e-020  4.853e-020   -19.314   -19.314    -0.000      0.37
Ca           1.000e-008
   Ca+2           1.000e-008  9.961e-009    -8.000    -8.002    -0.002    -18.95
   CaSO4          2.432e-014  2.432e-014   -13.614   -13.614     0.000      8.59
   CaOH+          3.670e-015  3.667e-015   -14.435   -14.436    -0.000     (0)  
   CaHCO3+        1.006e-015  1.005e-015   -14.998   -14.998    -0.000     10.49
   CaCO3          6.592e-017  6.592e-017   -16.181   -16.181     0.000    -14.48
   CaHSO4+        1.860e-019  1.859e-019   -18.730   -18.731    -0.000     (0)  
Cl           1.000e-008
   Cl-            1.000e-008  9.990e-009    -8.000    -8.000    -0.000     17.52
H(0)         1.612e-032
   H2             8.058e-033  8.058e-033   -32.094   -32.094     0.000     28.58
K            1.000e-008
   K+             1.000e-008  9.990e-009    -8.000    -8.000    -0.000      9.83
   KSO4-          1.477e-015  1.476e-015   -14.831   -14.831    -0.000     (0)  
Mg           1.000e-008
   Mg+2           9.996e-009  9.957e-009    -8.000    -8.002    -0.002    -24.07
   MgOH+          3.835e-012  3.832e-012   -11.416   -11.417    -0.000     (0)  
   MgSO4          7.004e-014  7.004e-014   -13.155   -13.155     0.000      6.94
   MgHCO3+        9.892e-016  9.882e-016   -15.005   -15.005    -0.000      5.77
   MgCO3          1.879e-017  1.879e-017   -16.726   -16.726     0.000    -17.09
Na           1.000e-008
   Na+            1.000e-008  9.990e-009    -8.000    -8.000    -0.000      0.09
   NaSO4-         6.548e-016  6.542e-016   -15.184   -15.184    -0.000     15.84
   NaHCO3         1.257e-016  1.257e-016   -15.901   -15.901     0.000     19.41
   NaCO3-         4.858e-020  4.853e-020   -19.314   -19.314    -0.000      0.37
   NaOH           4.548e-025  4.548e-025   -24.342   -24.342     0.000     (0)  
O(0)         8.461e-015
   O2             4.230e-015  4.230e-015   -14.374   -14.374     0.000     32.99
S(-2)        0.000e+000
   H2S            0.000e+000  0.000e+000  -101.854  -101.854     0.000     37.28
   HS-            0.000e+000  0.000e+000  -102.063  -102.063    -0.000     20.77
   S-2            0.000e+000  0.000e+000  -107.360  -107.361    -0.002     (0)  
S(6)         1.000e-008
   SO4-2          9.998e-009  9.959e-009    -8.000    -8.002    -0.002     14.04
   HSO4-          1.554e-012  1.552e-012   -11.809   -11.809    -0.000     41.29
   MgSO4          7.004e-014  7.004e-014   -13.155   -13.155     0.000      6.94
   BaSO4          4.972e-014  4.972e-014   -13.303   -13.303     0.000     (0)  
   SrSO4          3.202e-014  3.202e-014   -13.495   -13.495     0.000     25.33
   CaSO4          2.432e-014  2.432e-014   -13.614   -13.614     0.000      8.59
   KSO4-          1.477e-015  1.476e-015   -14.831   -14.831    -0.000     (0)  
   NaSO4-         6.548e-016  6.542e-016   -15.184   -15.184    -0.000     15.84
   CaHSO4+        1.860e-019  1.859e-019   -18.730   -18.731    -0.000     (0)  
Sr           1.000e-008
   Sr+2           1.000e-008  9.961e-009    -8.000    -8.002    -0.002    -19.24
   SrSO4          3.202e-014  3.202e-014   -13.495   -13.495     0.000     25.33
   SrHCO3+        4.663e-015  4.658e-015   -14.331   -14.332    -0.000     (0)  
   SrOH+          1.134e-015  1.133e-015   -14.945   -14.946    -0.000     (0)  
   SrCO3          2.555e-017  2.555e-017   -16.593   -16.593     0.000    -13.99

------------------------------Saturation indices-------------------------------

	Phase               SI   log IAP   log K(348 K,   1 atm)

	Anhydrite       -11.10    -16.00   -4.91  CaSO4
	Aragonite       -11.23    -20.04   -8.81  CaCO3
	Barite           -6.46    -16.00   -9.54  BaSO4
	Calcite         -11.11    -20.04   -8.93  CaCO3
	Celestite        -9.04    -16.00   -6.97  SrSO4
	CH4(g)         -102.06   -105.12   -3.05  CH4
	CO2(g)           -6.43     -8.28   -1.85  CO2
	Dolomite        -21.99    -40.08  -18.08  CaMg(CO3)2
	Gypsum          -11.29    -16.00   -4.72  CaSO4:2H2O
	H2(g)           -28.96    -32.09   -3.13  H2
	H2O(g)           -0.42     -0.00    0.42  H2O
	H2S(g)         -100.48   -108.41   -7.93  H2S
	Halite          -17.59    -16.00    1.59  NaCl
	O2(g)           -11.28    -14.37   -3.10  O2
	Strontianite    -10.45    -20.04   -9.59  SrCO3
	Sulfur          -76.98    -73.10    3.88  S
	Sylvite         -17.34    -16.00    1.34  KCl
	Witherite       -11.25    -20.04   -8.79  BaCO3


Reaction step 8.

Using solution 1.	
Using temperature 1.	

-----------------------------Solution composition------------------------------

	Elements           Molality       Moles

	Ba               1.000e-008  1.000e-008
	C                1.075e-008  1.075e-008
	Ca               1.000e-008  1.000e-008
	Cl               1.000e-008  1.000e-008
	K                1.000e-008  1.000e-008
	Mg               1.000e-008  1.000e-008
	Na               1.000e-008  1.000e-008
	S                1.000e-008  1.000e-008
	Sr               1.000e-008  1.000e-008

----------------------------Description of solution----------------------------

                                       pH  =   6.227      Charge balance
                                       pe  =   7.393      Adjusted to redox equilibrium
       Specific Conductance (uS/cm, 87 oC) = 0
                          Density (g/cm3)  =   0.96697
                               Volume (L)  =   1.03416
                        Activity of water  =   1.000
                           Ionic strength  =  7.142e-007
                       Mass of water (kg)  =  1.000e+000
                 Total alkalinity (eq/kg)  =  1.000e-008
                       Total CO2 (mol/kg)  =  1.075e-008
                      Temperature (deg C)  =  87.50
                  Electrical balance (eq)  =  6.000e-008
 Percent error, 100*(Cat-|An|)/(Cat+|An|)  =   4.52
                               Iterations  =  11
                                  Total H  = 1.110124e+002
                                  Total O  = 5.550622e+001

----------------------------Distribution of species----------------------------

                                               Log       Log       Log    mole V
   Species          Molality    Activity  Molality  Activity     Gamma   cm3/mol

   OH-            5.997e-007  5.990e-007    -6.222    -6.223    -0.000     -5.11
   H+             5.942e-007  5.935e-007    -6.226    -6.227    -0.000      0.00
   H2O            5.551e+001  1.000e+000     1.744    -0.000     0.000     18.63
Ba           1.000e-008
   Ba+2           1.000e-008  9.955e-009    -8.000    -8.002    -0.002    -11.58
   BaSO4          4.965e-014  4.965e-014   -13.304   -13.304     0.000     (0)  
   BaHCO3+        3.080e-015  3.077e-015   -14.511   -14.512    -0.000     (0)  
   BaOH+          5.689e-016  5.683e-016   -15.245   -15.245    -0.000     (0)  
   BaCO3          1.012e-017  1.012e-017   -16.995   -16.995     0.000    -10.36
C(-4)        0.000e+000
   CH4            0.000e+000  0.000e+000  -100.344  -100.344     0.000     32.22
C(4)         1.075e-008
   CO2            6.235e-009  6.235e-009    -8.205    -8.205     0.000     21.50
   HCO3-          4.515e-009  4.510e-009    -8.345    -8.346    -0.000     25.13
   CO3-2          5.637e-013  5.612e-013   -12.249   -12.251    -0.002     -6.95
   SrHCO3+        5.841e-015  5.834e-015   -14.234   -14.234    -0.000     (0)  
   BaHCO3+        3.080e-015  3.077e-015   -14.511   -14.512    -0.000     (0)  
   MgHCO3+        9.442e-016  9.431e-016   -15.025   -15.025    -0.000      5.63
   CaHCO3+        8.962e-016  8.952e-016   -15.048   -15.048    -0.000     10.51
   NaHCO3         1.007e-016  1.007e-016   -15.997   -15.997     0.000     19.41
   CaCO3          5.878e-017  5.878e-017   -16.231   -16.231     0.000    -14.46
   SrCO3          2.259e-017  2.259e-017   -16.646   -16.646     0.000    -13.97
   MgCO3          1.391e-017  1.391e-017   -16.857   -16.857     0.000    -17.08
   BaCO3          1.012e-017  1.012e-017   -16.995   -16.995     0.000    -10.36
   NaCO3-         3.076e-020  3.073e-020   -19.512   -19.512    -0.000     -0.19
Ca           1.000e-008
   Ca+2           1.000e-008  9.955e-009    -8.000    -8.002    -0.002    -19.42
   CaSO4          2.596e-014  2.596e-014   -13.586   -13.586     0.000      8.74
   CaOH+          2.787e-015  2.783e-015   -14.555   -14.555    -0.000     (0)  
   CaHCO3+        8.962e-016  8.952e-016   -15.048   -15.048    -0.000     10.51
   CaCO3          5.878e-017  5.878e-017   -16.231   -16.231     0.000    -14.46
   CaHSO4+        3.502e-019  3.498e-019   -18.456   -18.456    -0.000     (0)  
Cl           1.000e-008
   Cl-            1.000e-008  9.989e-009    -8.000    -8.000    -0.000     16.91
H(0)         4.876e-031
   H2             2.438e-031  2.438e-031   -30.613   -30.613     0.000     28.57
K            1.000e-008
   K+             1.000e-008  9.989e-009    -8.000    -8.000    -0.000      9.92
   KSO4-          1.723e-015  1.721e-015   -14.764   -14.764    -0.000     (0)  
Mg           1.000e-008
   Mg+2           9.993e-009  9.948e-009    -8.000    -8.002    -0.002    -24.76
   MgOH+          6.473e-012  6.465e-012   -11.189   -11.189    -0.000     (0)  
   MgSO4          8.782e-014  8.782e-014   -13.056   -13.056     0.000      7.08
   MgHCO3+        9.442e-016  9.431e-016   -15.025   -15.025    -0.000      5.63
   MgCO3          1.391e-017  1.391e-017   -16.857   -16.857     0.000    -17.08
Na           1.000e-008
   Na+            1.000e-008  9.989e-009    -8.000    -8.000    -0.000      0.28
   NaSO4-         6.921e-016  6.913e-016   -15.160   -15.160    -0.000     14.45
   NaHCO3         1.007e-016  1.007e-016   -15.997   -15.997     0.000     19.41
   NaCO3-         3.076e-020  3.073e-020   -19.512   -19.512    -0.000     -0.19
   NaOH           5.983e-025  5.983e-025   -24.223   -24.223     0.000     (0)  
O(0)         6.633e-015
   O2             3.317e-015  3.317e-015   -14.479   -14.479     0.000     33.45
S(-2)        0.000e+000
   H2S            0.000e+000  0.000e+000   -96.875   -96.875     0.000     37.29
   HS-            0.000e+000  0.000e+000   -97.175   -97.176    -0.000     20.35
   S-2            0.000e+000  0.000e+000  -102.328  -102.330    -0.002     (0)  
S(6)         1.000e-008
   SO4-2          9.997e-009  9.952e-009    -8.000    -8.002    -0.002     12.75
   HSO4-          2.926e-012  2.923e-012   -11.534   -11.534    -0.000     41.06
   MgSO4          8.782e-014  8.782e-014   -13.056   -13.056     0.000      7.08
   BaSO4          4.965e-014  4.965e-014   -13.304   -13.304     0.000     (0)  
   SrSO4          3.549e-014  3.549e-014   -13.450   -13.450     0.000     25.47
   CaSO4          2.596e-014  2.596e-014   -13.586   -13.586     0.000      8.74
   KSO4-          1.723e-015  1.721e-015   -14.764   -14.764    -0.000     (0)  
   NaSO4-         6.921e-016  6.913e-016   -15.160   -15.160    -0.000     14.45
   CaHSO4+        3.502e-019  3.498e-019   -18.456   -18.456    -0.000     (0)  
Sr           1.000e-008
   Sr+2           1.000e-008  9.955e-009    -8.000    -8.002    -0.002    -19.68
   SrSO4          3.549e-014  3.549e-014   -13.450   -13.450     0.000     25.47
   SrHCO3+        5.841e-015  5.834e-015   -14.234   -14.234    -0.000     (0)  
   SrOH+          8.611e-016  8.602e-016   -15.065   -15.065    -0.000     (0)  
   SrCO3          2.259e-017  2.259e-017   -16.646   -16.646     0.000    -13.97

------------------------------Saturation indices-------------------------------

	Phase               SI   log IAP   log K(360 K,   1 atm)

	Anhydrite       -10.92    -16.00   -5.08  CaSO4
	Aragonite       -11.27    -20.25   -8.98  CaCO3
	Barite           -6.48    -16.00   -9.52  BaSO4
	Calcite         -11.17    -20.25   -9.09  CaCO3
	Celestite        -8.95    -16.00   -7.06  SrSO4
	CH4(g)          -97.28   -100.34   -3.07  CH4
	CO2(g)           -6.29     -8.21   -1.91  CO2
	Dolomite        -22.22    -40.51  -18.29  CaMg(CO3)2
	Gypsum          -11.22    -16.00   -4.78  CaSO4:2H2O
	H2(g)           -27.49    -30.61   -3.12  H2
	H2O(g)           -0.21     -0.00    0.21  H2O
	H2S(g)          -95.47   -103.40   -7.93  H2S
	Halite          -17.58    -16.00    1.58  NaCl
	O2(g)           -11.37    -14.48   -3.11  O2
	Strontianite    -10.51    -20.25   -9.74  SrCO3
	Sulfur          -73.31    -69.64    3.68  S
	Sylvite         -17.44    -16.00    1.43  KCl
	Witherite       -11.34    -20.25   -8.91  BaCO3


Reaction step 9.

Using solution 1.	
Using temperature 1.	

-----------------------------Solution composition------------------------------

	Elements           Molality       Moles

	Ba               1.000e-008  1.000e-008
	C                1.075e-008  1.075e-008
	Ca               1.000e-008  1.000e-008
	Cl               1.000e-008  1.000e-008
	K                1.000e-008  1.000e-008
	Mg               1.000e-008  1.000e-008
	Na               1.000e-008  1.000e-008
	S                1.000e-008  1.000e-008
	Sr               1.000e-008  1.000e-008

----------------------------Description of solution----------------------------

                                       pH  =   6.121      Charge balance
                                       pe  =   6.815      Adjusted to redox equilibrium
       Specific Conductance (uS/cm, 100 oC) = 1
                          Density (g/cm3)  =   0.95835
                               Volume (L)  =   1.04346
                        Activity of water  =   1.000
                           Ionic strength  =  8.778e-007
                       Mass of water (kg)  =  1.000e+000
                 Total alkalinity (eq/kg)  =  1.000e-008
                       Total CO2 (mol/kg)  =  1.075e-008
                      Temperature (deg C)  = 100.00
                  Electrical balance (eq)  =  6.000e-008
 Percent error, 100*(Cat-|An|)/(Cat+|An|)  =   3.62
                               Iterations  =   9
                                  Total H  = 1.110124e+002
                                  Total O  = 5.550622e+001

----------------------------Distribution of species----------------------------

                                               Log       Log       Log    mole V
   Species          Molality    Activity  Molality  Activity     Gamma   cm3/mol

   OH-            7.643e-007  7.633e-007    -6.117    -6.117    -0.001     -5.96
   H+             7.578e-007  7.568e-007    -6.120    -6.121    -0.001      0.00
   H2O            5.551e+001  1.000e+000     1.744    -0.000     0.000     18.80
Ba           1.000e-008
   Ba+2           1.000e-008  9.948e-009    -8.000    -8.002    -0.002    -11.62
   BaSO4          4.957e-014  4.957e-014   -13.305   -13.305     0.000     (0)  
   BaHCO3+        3.599e-015  3.594e-015   -14.444   -14.444    -0.001     (0)  
   BaOH+          4.460e-016  4.454e-016   -15.351   -15.351    -0.001     (0)  
   BaCO3          7.617e-018  7.617e-018   -17.118   -17.118     0.000    -10.31
C(-4)        0.000e+000
   CH4            0.000e+000  0.000e+000   -96.133   -96.133     0.000     32.22
C(4)         1.075e-008
   CO2            7.189e-009  7.189e-009    -8.143    -8.143     0.000     20.65
   HCO3-          3.561e-009  3.557e-009    -8.448    -8.449    -0.001     24.53
   CO3-2          3.304e-013  3.287e-013   -12.481   -12.483    -0.002     -9.21
   SrHCO3+        7.063e-015  7.054e-015   -14.151   -14.152    -0.001     (0)  
   BaHCO3+        3.599e-015  3.594e-015   -14.444   -14.444    -0.001     (0)  
   MgHCO3+        8.820e-016  8.808e-016   -15.055   -15.055    -0.001      5.41
   CaHCO3+        8.038e-016  8.028e-016   -15.095   -15.095    -0.001     10.47
   NaHCO3         7.790e-017  7.790e-017   -16.108   -16.108     0.000     19.41
   CaCO3          4.830e-017  4.830e-017   -16.316   -16.316     0.000    -14.43
   SrCO3          1.912e-017  1.912e-017   -16.718   -16.718     0.000    -13.94
   MgCO3          9.863e-018  9.863e-018   -17.006   -17.006     0.000    -17.07
   BaCO3          7.617e-018  7.617e-018   -17.118   -17.118     0.000    -10.31
   NaCO3-         1.862e-020  1.859e-020   -19.730   -19.731    -0.001     -1.04
Ca           1.000e-008
   Ca+2           1.000e-008  9.948e-009    -8.000    -8.002    -0.002    -20.02
   CaSO4          2.757e-014  2.757e-014   -13.560   -13.560     0.000      8.86
   CaOH+          2.184e-015  2.181e-015   -14.661   -14.661    -0.001     (0)  
   CaHCO3+        8.038e-016  8.028e-016   -15.095   -15.095    -0.001     10.47
   CaCO3          4.830e-017  4.830e-017   -16.316   -16.316     0.000    -14.43
   CaHSO4+        6.458e-019  6.450e-019   -18.190   -18.190    -0.001     (0)  
Cl           1.000e-008
   Cl-            1.000e-008  9.987e-009    -8.000    -8.001    -0.001     16.11
H(0)         1.048e-029
   H2             5.241e-030  5.241e-030   -29.281   -29.281     0.000     28.57
K            1.000e-008
   K+             1.000e-008  9.987e-009    -8.000    -8.001    -0.001      9.97
   KSO4-          1.988e-015  1.985e-015   -14.702   -14.702    -0.001     (0)  
Mg           1.000e-008
   Mg+2           9.989e-009  9.938e-009    -8.000    -8.003    -0.002    -25.56
   MgOH+          1.069e-011  1.068e-011   -10.971   -10.972    -0.001     (0)  
   MgSO4          1.084e-013  1.084e-013   -12.965   -12.965     0.000      7.20
   MgHCO3+        8.820e-016  8.808e-016   -15.055   -15.055    -0.001      5.41
   MgCO3          9.863e-018  9.863e-018   -17.006   -17.006     0.000    -17.07
Na           1.000e-008
   Na+            1.000e-008  9.987e-009    -8.000    -8.001    -0.001      0.45
   NaSO4-         7.286e-016  7.277e-016   -15.137   -15.138    -0.001     12.72
   NaHCO3         7.790e-017  7.790e-017   -16.108   -16.108     0.000     19.41
   NaCO3-         1.862e-020  1.859e-020   -19.730   -19.731    -0.001     -1.04
   NaOH           7.623e-025  7.623e-025   -24.118   -24.118     0.000     (0)  
O(0)         6.633e-015
[...]
   MgSO4          2.886e-013  2.886e-013   -12.540   -12.540     0.000      7.65
   MgHCO3+        4.490e-016  4.479e-016   -15.348   -15.349    -0.001      1.90
   MgCO3          7.275e-019  7.275e-019   -18.138   -18.138     0.000    -16.83
Na           1.000e-008
   Na+            1.000e-008  9.976e-009    -8.000    -8.001    -0.001     -1.10
   NaSO4-         9.211e-016  9.189e-016   -15.036   -15.037    -0.001     -9.19
   NaHCO3         1.101e-017  1.101e-017   -16.958   -16.958     0.000     19.41
   NaCO3-         5.215e-022  5.202e-022   -21.283   -21.284    -0.001    -14.39
   NaOH           1.906e-024  1.906e-024   -23.720   -23.720     0.000     (0)  
O(0)         6.592e-012
   O2             3.296e-012  3.296e-012   -11.482   -11.482     0.000     37.31
S(-2)        0.000e+000
   H2S            0.000e+000  0.000e+000   -76.783   -76.783     0.000     37.34
   HS-            0.000e+000  0.000e+000   -77.900   -77.901    -0.001     11.03
   S-2            0.000e+000  0.000e+000   -82.126   -82.130    -0.004     (0)  
S(6)         1.000e-008
   SO4-2          9.857e-009  9.761e-009    -8.006    -8.011    -0.004     -7.42
   HSO4-          1.429e-010  1.425e-010    -9.845    -9.846    -0.001     33.87
   MgSO4          2.886e-013  2.886e-013   -12.540   -12.540     0.000      7.65
   SrSO4          6.026e-014  6.026e-014   -13.220   -13.220     0.000     26.04
   BaSO4          4.844e-014  4.844e-014   -13.315   -13.315     0.000     (0)  
   CaSO4          3.599e-014  3.599e-014   -13.444   -13.444     0.000      9.31
   KSO4-          3.912e-015  3.903e-015   -14.408   -14.409    -0.001     (0)  
   NaSO4-         9.211e-016  9.189e-016   -15.036   -15.037    -0.001     -9.19
   CaHSO4+        1.703e-017  1.699e-017   -16.769   -16.770    -0.001     (0)  
Sr           1.000e-008
   Sr+2           1.000e-008  9.903e-009    -8.000    -8.004    -0.004    -25.90
   SrSO4          6.026e-014  6.026e-014   -13.220   -13.220     0.000     26.04
   SrHCO3+        1.439e-014  1.435e-014   -13.842   -13.843    -0.001     (0)  
   SrOH+          2.667e-016  2.660e-016   -15.574   -15.575    -0.001     (0)  
   SrCO3          4.148e-018  4.148e-018   -17.382   -17.382     0.000    -13.65

------------------------------Saturation indices-------------------------------

	Phase               SI   log IAP   log K(448 K,   9 atm)

	Anhydrite        -9.64    -16.01   -6.38  CaSO4
	Aragonite       -11.49    -22.11  -10.61  CaCO3
	Barite           -6.07    -16.01   -9.94  BaSO4
	Calcite         -11.42    -22.11  -10.69  CaCO3
	Celestite        -8.19    -16.01   -7.82  SrSO4
	CH4(g)          -79.64    -82.51   -2.87  CH4
	CO2(g)           -5.93     -7.99   -2.06  CO2
	Dolomite        -24.83    -44.22  -19.39  CaMg(CO3)2
	Gypsum          -10.62    -16.01   -5.39  CaSO4:2H2O
	H2(g)           -21.45    -24.35   -2.90  H2
	H2O(g)            0.93     -0.00   -0.93  H2O
	H2S(g)          -75.47    -83.62   -8.15  H2S
	Halite          -17.34    -16.00    1.34  NaCl
	O2(g)            -8.51    -11.48   -2.97  O2
	Strontianite    -10.96    -22.11  -11.15  SrCO3
	Sulfur          -58.58    -56.02    2.56  S
	Sylvite         -17.94    -16.00    1.93  KCl
	Witherite       -12.33    -22.11   -9.78  BaCO3


Reaction step 16.

Using solution 1.	
Using temperature 1.	

-----------------------------Solution composition------------------------------

	Elements           Molality       Moles

	Ba               1.000e-008  1.000e-008
	C                1.075e-008  1.075e-008
	Ca               1.000e-008  1.000e-008
	Cl               1.000e-008  1.000e-008
	K                1.000e-008  1.000e-008
	Mg               1.000e-008  1.000e-008
	Na               1.000e-008  1.000e-008
	S                1.000e-008  1.000e-008
	Sr               1.000e-008  1.000e-008

----------------------------Description of solution----------------------------

                                       pH  =   5.684      Charge balance
                                       pe  =   4.697      Adjusted to redox equilibrium
       Specific Conductance (uS/cm, 187 oC) = 7
                          Density (g/cm3)  =   0.87886
                               Volume (L)  =   1.13784
                        Activity of water  =   1.000
                           Ionic strength  =  2.195e-006
                       Mass of water (kg)  =  1.000e+000
                 Total alkalinity (eq/kg)  =  1.000e-008
                       Total CO2 (mol/kg)  =  1.075e-008
                      Temperature (deg C)  = 187.50
                           Pressure (atm)  = 11.74
                  Electrical balance (eq)  =  6.000e-008
 Percent error, 100*(Cat-|An|)/(Cat+|An|)  =   1.40
                               Iterations  =   9
                                  Total H  = 1.110124e+002
                                  Total O  = 5.550622e+001

----------------------------Distribution of species----------------------------

                                               Log       Log       Log    mole V
   Species          Molality    Activity  Molality  Activity     Gamma   cm3/mol

   OH-            2.085e-006  2.079e-006    -5.681    -5.682    -0.001    -21.55
   H+             2.075e-006  2.070e-006    -5.683    -5.684    -0.001      0.00
   H2O            5.551e+001  1.000e+000     1.744    -0.000     0.000     20.50
Ba           1.000e-008
   Ba+2           1.000e-008  9.895e-009    -8.000    -8.005    -0.005    -14.39
   BaSO4          4.793e-014  4.793e-014   -13.319   -13.319     0.000     (0)  
   BaHCO3+        6.340e-015  6.323e-015   -14.198   -14.199    -0.001     (0)  
   BaOH+          1.624e-016  1.620e-016   -15.789   -15.791    -0.001     (0)  
   BaCO3          5.431e-019  5.431e-019   -18.265   -18.265     0.000     -9.89
C(-4)        0.000e+000
   CH4            0.000e+000  0.000e+000   -83.531   -83.531     0.000     32.22
C(4)         1.075e-008
   CO2            1.036e-008  1.036e-008    -7.985    -7.985     0.000     17.51
   HCO3-          3.942e-010  3.932e-010    -9.404    -9.405    -0.001     14.65
   SrHCO3+        1.584e-014  1.580e-014   -13.800   -13.801    -0.001     (0)  
   BaHCO3+        6.340e-015  6.323e-015   -14.198   -14.199    -0.001     (0)  
   CO3-2          4.174e-015  4.130e-015   -14.379   -14.384    -0.005    -51.06
   CaHCO3+        1.662e-015  1.658e-015   -14.779   -14.781    -0.001      8.35
   MgHCO3+        3.957e-016  3.946e-016   -15.403   -15.404    -0.001      0.73
   NaHCO3         7.749e-018  7.749e-018   -17.111   -17.111     0.000     19.41
   SrCO3          3.109e-018  3.109e-018   -17.507   -17.507     0.000    -13.57
   CaCO3          8.718e-019  8.718e-019   -18.060   -18.060     0.000    -14.08
   BaCO3          5.431e-019  5.431e-019   -18.265   -18.265     0.000     -9.89
   MgCO3          4.529e-019  4.529e-019   -18.344   -18.344     0.000    -16.75
   NaCO3-         2.772e-022  2.765e-022   -21.557   -21.558    -0.001    -18.85
Ca           1.000e-008
   Ca+2           1.000e-008  9.895e-009    -8.000    -8.005    -0.005    -29.78
   CaSO4          3.687e-014  3.688e-014   -13.433   -13.433     0.000      9.36
   CaHCO3+        1.662e-015  1.658e-015   -14.779   -14.781    -0.001      8.35
   CaOH+          7.954e-016  7.933e-016   -15.099   -15.101    -0.001     (0)  
   CaHSO4+        2.745e-017  2.738e-017   -16.561   -16.563    -0.001     (0)  
   CaCO3          8.718e-019  8.718e-019   -18.060   -18.060     0.000    -14.08
Cl           1.000e-008
   Cl-            1.000e-008  9.974e-009    -8.000    -8.001    -0.001      4.03
H(0)         8.521e-025
   H2             4.261e-025  4.261e-025   -24.371   -24.371     0.000     28.55
K            1.000e-008
   K+             1.000e-008  9.974e-009    -8.000    -8.001    -0.001      9.06
   KSO4-          4.256e-015  4.244e-015   -14.371   -14.372    -0.001     (0)  
Mg           1.000e-008
   Mg+2           9.773e-009  9.670e-009    -8.010    -8.015    -0.005    -37.98
   MgOH+          2.266e-010  2.260e-010    -9.645    -9.646    -0.001     (0)  
   MgSO4          3.235e-013  3.235e-013   -12.490   -12.490     0.000      7.70
   MgHCO3+        3.957e-016  3.946e-016   -15.403   -15.404    -0.001      0.73
   MgCO3          4.529e-019  4.529e-019   -18.344   -18.344     0.000    -16.75
Na           1.000e-008
   Na+            1.000e-008  9.974e-009    -8.000    -8.001    -0.001     -1.69
   NaSO4-         9.439e-016  9.414e-016   -15.025   -15.026    -0.001    -16.14
   NaHCO3         7.749e-018  7.749e-018   -17.111   -17.111     0.000     19.41
   NaCO3-         2.772e-022  2.765e-022   -21.557   -21.558    -0.001    -18.85
   NaOH           2.060e-024  2.060e-024   -23.686   -23.686     0.000     (0)  
O(0)         3.965e-010
   O2             1.983e-010  1.983e-010    -9.703    -9.703     0.000     38.19
S(-2)        0.000e+000
   H2S            0.000e+000  0.000e+000   -77.409   -77.409     0.000     37.34
   HS-            0.000e+000  0.000e+000   -78.660   -78.661    -0.001      8.15
   S-2            0.000e+000  0.000e+000   -82.760   -82.765    -0.005     (0)  
S(6)         1.000e-008
   SO4-2          9.769e-009  9.666e-009    -8.010    -8.015    -0.005    -13.69
   HSO4-          2.306e-010  2.300e-010    -9.637    -9.638    -0.001     31.56
   MgSO4          3.235e-013  3.235e-013   -12.490   -12.490     0.000      7.70
   SrSO4          6.312e-014  6.312e-014   -13.200   -13.200     0.000     26.10
   BaSO4          4.793e-014  4.793e-014   -13.319   -13.319     0.000     (0)  
   CaSO4          3.687e-014  3.688e-014   -13.433   -13.433     0.000      9.36
   KSO4-          4.256e-015  4.244e-015   -14.371   -14.372    -0.001     (0)  
   NaSO4-         9.439e-016  9.414e-016   -15.025   -15.026    -0.001    -16.14
   CaHSO4+        2.745e-017  2.738e-017   -16.561   -16.563    -0.001     (0)  
Sr           1.000e-008
   Sr+2           1.000e-008  9.895e-009    -8.000    -8.005    -0.005    -27.65
   SrSO4          6.312e-014  6.312e-014   -13.200   -13.200     0.000     26.10
   SrHCO3+        1.584e-014  1.580e-014   -13.800   -13.801    -0.001     (0)  
   SrOH+          2.458e-016  2.452e-016   -15.609   -15.611    -0.001     (0)  
   SrCO3          3.109e-018  3.109e-018   -17.507   -17.507     0.000    -13.57

------------------------------Saturation indices-------------------------------

	Phase               SI   log IAP   log K(460 K,  12 atm)

	Anhydrite        -9.46    -16.02   -6.56  CaSO4
	Aragonite       -11.48    -22.39  -10.90  CaCO3
	Barite           -5.96    -16.02  -10.05  BaSO4
	Calcite         -11.42    -22.39  -10.97  CaCO3
	Celestite        -8.07    -16.02   -7.95  SrSO4
	CH4(g)          -80.71    -83.53   -2.82  CH4
	CO2(g)           -5.93     -7.98   -2.05  CO2
	Dolomite        -25.29    -44.79  -19.50  CaMg(CO3)2
	Gypsum          -10.52    -16.02   -5.50  CaSO4:2H2O
	H2(g)           -21.52    -24.37   -2.85  H2
	H2O(g)            1.04     -0.00   -1.04  H2O
	H2S(g)          -76.14    -84.34   -8.20  H2S
	Halite          -17.28    -16.00    1.28  NaCl
	O2(g)            -6.78     -9.70   -2.92  O2
	Strontianite    -11.01    -22.39  -11.38  SrCO3
	Sulfur          -59.08    -56.65    2.44  S
	Sylvite         -17.99    -16.00    1.99  KCl
	Witherite       -12.51    -22.39   -9.88  BaCO3


Reaction step 17.

Using solution 1.	
Using temperature 1.	

-----------------------------Solution composition------------------------------

	Elements           Molality       Moles

	Ba               1.000e-008  1.000e-008
	C                1.075e-008  1.075e-008
	Ca               1.000e-008  1.000e-008
	Cl               1.000e-008  1.000e-008
	K                1.000e-008  1.000e-008
	Mg               1.000e-008  1.000e-008
	Na               1.000e-008  1.000e-008
	S                1.000e-008  1.000e-008
	Sr               1.000e-008  1.000e-008

----------------------------Description of solution----------------------------

                                       pH  =   5.657      Charge balance
                                       pe  =   4.506      Adjusted to redox equilibrium
       Specific Conductance (uS/cm, 200 oC) = 8
                          Density (g/cm3)  =   0.86467
                               Volume (L)  =   1.15651
                        Activity of water  =   1.000
                           Ionic strength  =  2.330e-006
                       Mass of water (kg)  =  1.000e+000
                 Total alkalinity (eq/kg)  =  1.000e-008
                       Total CO2 (mol/kg)  =  1.075e-008
                      Temperature (deg C)  = 200.00
                           Pressure (atm)  = 15.38
                  Electrical balance (eq)  =  6.000e-008
 Percent error, 100*(Cat-|An|)/(Cat+|An|)  =   1.32
                               Iterations  =  11
                                  Total H  = 1.110124e+002
                                  Total O  = 5.550622e+001

----------------------------Distribution of species----------------------------

                                               Log       Log       Log    mole V
   Species          Molality    Activity  Molality  Activity     Gamma   cm3/mol

   OH-            2.221e-006  2.214e-006    -5.654    -5.655    -0.001    -26.31
   H+             2.211e-006  2.205e-006    -5.655    -5.657    -0.001      0.00
   H2O            5.551e+001  1.000e+000     1.744    -0.000     0.000     20.84
Ba           1.000e-008
   Ba+2           1.000e-008  9.887e-009    -8.000    -8.005    -0.005    -15.36
   BaSO4          4.720e-014  4.720e-014   -13.326   -13.326     0.000     (0)  
   BaHCO3+        6.769e-015  6.750e-015   -14.169   -14.171    -0.001     (0)  
   BaOH+          1.524e-016  1.520e-016   -15.817   -15.818    -0.001     (0)  
   BaCO3          3.620e-019  3.620e-019   -18.441   -18.441     0.000     -9.78
C(-4)        0.000e+000
   CH4            0.000e+000  0.000e+000   -82.781   -82.781     0.000     32.22
C(4)         1.075e-008
   CO2            1.047e-008  1.047e-008    -7.980    -7.980     0.000     17.31
   HCO3-          2.816e-010  2.808e-010    -9.550    -9.552    -0.001     11.51
   SrHCO3+        1.750e-014  1.746e-014   -13.757   -13.758    -0.001     (0)  
   BaHCO3+        6.769e-015  6.750e-015   -14.169   -14.171    -0.001     (0)  
   CaHCO3+        2.575e-015  2.568e-015   -14.589   -14.590    -0.001      7.62
   CO3-2          2.190e-015  2.165e-015   -14.660   -14.665    -0.005    -63.82
   MgHCO3+        3.484e-016  3.474e-016   -15.458   -15.459    -0.001     -0.74
   NaHCO3         5.459e-018  5.459e-018   -17.263   -17.263     0.000     19.41
   SrCO3          2.330e-018  2.330e-018   -17.633   -17.633     0.000    -13.47
   BaCO3          3.620e-019  3.620e-019   -18.441   -18.441     0.000     -9.78
   CaCO3          3.340e-019  3.340e-019   -18.476   -18.476     0.000    -13.98
   MgCO3          2.808e-019  2.808e-019   -18.552   -18.552     0.000    -16.66
   NaCO3-         1.474e-022  1.470e-022   -21.831   -21.833    -0.001    -24.42
Ca           1.000e-008
   Ca+2           1.000e-008  9.887e-009    -8.000    -8.005    -0.005    -32.84
   CaSO4          3.741e-014  3.741e-014   -13.427   -13.427     0.000      9.41
   CaHCO3+        2.575e-015  2.568e-015   -14.589   -14.590    -0.001      7.62
   CaOH+          7.464e-016  7.443e-016   -15.127   -15.128    -0.001     (0)  
   CaHSO4+        4.322e-017  4.310e-017   -16.364   -16.366    -0.001     (0)  
   CaCO3          3.340e-019  3.340e-019   -18.476   -18.476     0.000    -13.98
Cl           1.000e-008
   Cl-            1.000e-008  9.972e-009    -8.000    -8.001    -0.001      0.39
H(0)         2.210e-024
   H2             1.105e-024  1.105e-024   -23.957   -23.957     0.000     28.55
K            1.000e-008
   K+             1.000e-008  9.972e-009    -8.000    -8.001    -0.001      8.62
   KSO4-          4.584e-015  4.571e-015   -14.339   -14.340    -0.001     (0)  
Mg           1.000e-008
   Mg+2           9.666e-009  9.557e-009    -8.015    -8.020    -0.005    -41.84
   MgOH+          3.333e-010  3.324e-010    -9.477    -9.478    -0.001     (0)  
   MgSO4          3.559e-013  3.559e-013   -12.449   -12.449     0.000      7.74
   MgHCO3+        3.484e-016  3.474e-016   -15.458   -15.459    -0.001     -0.74
   MgCO3          2.808e-019  2.808e-019   -18.552   -18.552     0.000    -16.66
Na           1.000e-008
   Na+            1.000e-008  9.972e-009    -8.000    -8.001    -0.001     -2.45
   NaSO4-         9.609e-016  9.582e-016   -15.017   -15.019    -0.001    -24.76
   NaHCO3         5.459e-018  5.459e-018   -17.263   -17.263     0.000     19.41
   NaCO3-         1.474e-022  1.470e-022   -21.831   -21.833    -0.001    -24.42
   NaOH           2.185e-024  2.185e-024   -23.661   -23.661     0.000     (0)  
O(0)         2.593e-009
   O2             1.297e-009  1.297e-009    -8.887    -8.887     0.000     39.26
S(-2)        0.000e+000
   H2S            0.000e+000  0.000e+000   -76.263   -76.263     0.000     37.33
   HS-            0.000e+000  0.000e+000   -77.649   -77.650    -0.001      4.57
   S-2            0.000e+000  0.000e+000   -81.626   -81.631    -0.005     (0)  
S(6)         1.000e-008
   SO4-2          9.635e-009  9.526e-009    -8.016    -8.021    -0.005    -21.49
   HSO4-          3.642e-010  3.632e-010    -9.439    -9.440    -0.001     28.66
   MgSO4          3.559e-013  3.559e-013   -12.449   -12.449     0.000      7.74
   SrSO4          6.538e-014  6.538e-014   -13.185   -13.185     0.000     26.14
   BaSO4          4.720e-014  4.720e-014   -13.326   -13.326     0.000     (0)  
   CaSO4          3.741e-014  3.741e-014   -13.427   -13.427     0.000      9.41
   KSO4-          4.584e-015  4.571e-015   -14.339   -14.340    -0.001     (0)  
   NaSO4-         9.609e-016  9.582e-016   -15.017   -15.019    -0.001    -24.76
   CaHSO4+        4.322e-017  4.310e-017   -16.364   -16.366    -0.001     (0)  
Sr           1.000e-008
   Sr+2           1.000e-008  9.887e-009    -8.000    -8.005    -0.005    -29.80
   SrSO4          6.538e-014  6.538e-014   -13.185   -13.185     0.000     26.14
   SrHCO3+        1.750e-014  1.746e-014   -13.757   -13.758    -0.001     (0)  
   SrOH+          2.307e-016  2.300e-016   -15.637   -15.638    -0.001     (0)  
   SrCO3          2.330e-018  2.330e-018   -17.633   -17.633     0.000    -13.47

------------------------------Saturation indices-------------------------------

	Phase               SI   log IAP   log K(473 K,  15 atm)

	Anhydrite        -9.28    -16.03   -6.75  CaSO4
	Aragonite       -11.46    -22.67  -11.21  CaCO3
	Barite           -5.85    -16.03  -10.17  BaSO4
	Calcite         -11.40    -22.67  -11.27  CaCO3
	Celestite        -7.94    -16.03   -8.08  SrSO4
	CH4(g)          -80.03    -82.78   -2.76  CH4
	CO2(g)           -5.94     -7.98   -2.04  CO2
	Dolomite        -25.75    -45.35  -19.61  CaMg(CO3)2
	Gypsum          -10.43    -16.03   -5.60  CaSO4:2H2O
	H2(g)           -21.15    -23.96   -2.81  H2
	H2O(g)            1.16     -0.00   -1.16  H2O
	H2S(g)          -75.05    -83.31   -8.26  H2S
	Halite          -17.21    -16.00    1.21  NaCl
	O2(g)            -6.01     -8.89   -2.88  O2
	Strontianite    -11.05    -22.67  -11.62  SrCO3
	Sulfur          -58.26    -55.94    2.32  S
	Sylvite         -18.05    -16.00    2.05  KCl
	Witherite       -12.71    -22.67   -9.96  BaCO3


------------------
End of simulation.
------------------

------------------------------------
Reading input data for simulation 4.
------------------------------------

-------------------------------
End of Run after 0.064 Seconds.
-------------------------------

