   Input file: Vm_salt_fig
  Output file: Vm_salt_fig.out
Database file: ../database/Amm.dat

------------------
Reading data base.
------------------

	SOLUTION_MASTER_SPECIES
	SOLUTION_SPECIES
	PHASES
	EXCHANGE_MASTER_SPECIES
	EXCHANGE_SPECIES
	SURFACE_MASTER_SPECIES
	SURFACE_SPECIES
	RATES
	END
------------------------------------
Reading input data for simulation 1.
------------------------------------

	DATABASE ../database/Amm.dat
	SOLUTION 1
	 pH 7 charge
	END
-------------------------------------------
Beginning of initial solution calculations.
-------------------------------------------

Initial solution 1.	

-----------------------------Solution composition------------------------------

	Elements           Molality       Moles

	Pure water     

----------------------------Description of solution----------------------------

                                       pH  =   6.997      Charge balance
                                       pe  =   4.000    
       Specific Conductance (uS/cm, 25 oC) = 0
                          Density (g/cm3)  =   0.99704
                               Volume (L)  =   1.00297
                        Activity of water  =   1.000
                           Ionic strength  =  1.006e-007
                       Mass of water (kg)  =  1.000e+000
                 Total alkalinity (eq/kg)  =  3.040e-017
                    Total carbon (mol/kg)  =  0.000e+000
                       Total CO2 (mol/kg)  =  0.000e+000
                      Temperature (deg C)  =  25.00
                  Electrical balance (eq)  = -3.040e-017
 Percent error, 100*(Cat-|An|)/(Cat+|An|)  =  -0.00
                               Iterations  =   2
                                  Total H  = 1.110124e+002
                                  Total O  = 5.550622e+001

----------------------------Distribution of species----------------------------

                                               Log       Log       Log    mole V
   Species          Molality    Activity  Molality  Activity     Gamma   cm3/mol

   OH-            1.006e-007  1.006e-007    -6.997    -6.997    -0.000     -4.14
   H+             1.006e-007  1.006e-007    -6.997    -6.997    -0.000      0.00
   H2O            5.551e+001  1.000e+000     1.744    -0.000     0.000     18.07
H(0)         1.433e-025
   H2             7.166e-026  7.166e-026   -25.145   -25.145     0.000     28.61
O(0)         0.000e+000
   O2             0.000e+000  0.000e+000   -42.090   -42.090     0.000     30.40

------------------------------Saturation indices-------------------------------

	Phase               SI   log IAP   log K(298 K,   1 atm)

	H2(g)           -22.04    -25.14   -3.10  H2
	H2O(g)           -1.50     -0.00    1.50  H2O
	O2(g)           -39.20    -42.09   -2.89  O2


------------------
End of simulation.
------------------

------------------------------------
Reading input data for simulation 2.
------------------------------------

	USE solution 1
	REACTION_TEMPERATURE
	 25.000000
	REACTION_PRESSURE
	 1.000000
	REACTION
	 HCl 1
	0 0.003345556 0.003509761 0.005804099 0.008152915  0.010050 0.010902557 0.019919104 0.020320 0.020722728 0.02917534 0.030010 0.039640309 0.040000 0.050500 0.057650 0.06183938 0.075390 0.079690 0.079931544 0.090713565 
	0.098980 0.100100 0.115900 0.124000 0.125650 0.138200 0.148360 0.148800 0.152170 0.198440 0.201350 0.217600 0.221790 0.230300 0.256600 0.258580 0.305100 0.317000 0.343670 0.376200 0.378892 0.378799 0.378888 0.400010 0.498090 0.564460 0.596830 0.608000 0.613160 0.634710 0.633689 0.696000 0.697270 0.793200 0.799170 0.892377 0.898500 0.900260 0.968600 0.968790 1.022200 1.154549 1.203100 1.276120 1.483900 1.618400 1.851100 1.954635 1.962320 2.095800 2.114800 2.195000 2.226783 2.264800 2.395500 2.457900 2.520000 2.764100 2.957400 3.014700 3.060917 3.191000 3.345673 3.852700 4.216778 4.216452 4.512961 4.631400 4.813464 4.813347 4.912400 5.116893 5.116862 5.316000 5.424050 5.423779 5.734175 5.734149 6.006400 6.048032 6.365700 6.625300 6.713663 6.734294 6.836000 6.963957 7.041466 7.372793 7.616000 7.708123 8.047887 8.391121 8.447000 8.739741 9.092376 9.294900 9.448106 9.810296
	USER_GRAPH
	 -headings HCl
	-axis_titles "(Ionic Strength)^0.5 / (mol/kg H2O)^0.5" "molar volume / (cm3/mol)"
	-axis_scale x_axis 0 3
	-axis_scale y_axis 16 30
	10 data 0, 18.03, 17.947, 17.955, 18.019, 18.003401, 18.053, 18.089, 18.151590, 18.104, 18.1, 18.144103, 18.128, 18.147104, 18.260570, 18.193491, 18.172, 18.291331, 18.251638, 18.221, 18.226, 18.293496, 18.360171, 18.172784, 18.401682, 18.425164, 18.400000, 18.375462, 18.421767, 18.420000, 18.441524, 18.551196, 18.351572, 18.520000, 18.528130, 18.509595, 18.540000, 18.580000, 18.569794, 18.630000, 18.620087, 18.644680, 18.706760, 18.620617, 18.639675, 18.709022, 18.752466, 18.771139, 18.739918, 18.796572, 18.809065, 18.800181, 18.824530, 18.848829, 18.872334, 18.907554, 18.920422, 18.929376, 18.966125, 18.966871, 18.949297, 18.997995, 19.038362, 19.041280, 19.127097, 19.158526, 19.205842, 19.278155, 19.266918, 19.279682, 19.347808, 19.347989, 19.369001, 19.338937, 19.385524, 19.408502, 19.421342, 19.382531, 19.461480, 19.475456, 19.547519, 19.560486, 19.604451, 19.618635, 19.722417, 19.824761, 19.823639, 19.863619, 19.868453, 19.915521, 19.922431, 19.912622, 19.978912, 19.972591, 20.022080, 20.004175, 20.065494, 20.064079, 20.049594, 20.081165, 20.113426, 20.155812, 20.162891, 20.205003, 20.202267, 20.233798, 20.229769, 20.244985, 20.285265, 20.285097, 20.325116, 20.361456, 20.402034, 20.376488, 20.436253, 20.473638, 20.464062, 20.509998, 20.547910,
	20 dim d(119)
	30 read d(1), d(2), d(3), d(4), d(5), d(6), d(7), d(8), d(9), d(10), d(11), d(12), d(13), d(14), d(15), d(16), d(17), d(18), d(19), d(20), d(21), d(22), d(23), d(24), d(25), d(26), d(27), d(28), d(29), d(30), d(31), d(32), d(33), d(34), d(35), d(36), d(37), d(38), d(39), d(40), d(41), d(42), d(43), d(44), d(45), d(46), d(47), d(48), d(49), d(50), d(51), d(52), d(53), d(54), d(55), d(56), d(57), d(58), d(59), d(60), d(61), d(62), d(63), d(64), d(65), d(66), d(67), d(68), d(69), d(70), d(71), d(72), d(73), d(74), d(75), d(76), d(77), d(78), d(79), d(80), d(81), d(82), d(83), d(84), d(85), d(86), d(87), d(88), d(89), d(90), d(91), d(92), d(93), d(94), d(95), d(96), d(97), d(98), d(99), d(100), d(101), d(102), d(103), d(104), d(105), d(106), d(107), d(108), d(109), d(110), d(111), d(112), d(113), d(114), d(115), d(116), d(117), d(118), d(119)
	40 if step_no = 1 then put(rho, 10)
	50 if step_no > 1 then Vmol = (1e3 + tot("Cl") * 36.461) / (tot("Cl") * rho) - 1e3 / (tot("Cl") * get(10))
	52 if step_no > 1 then Vmol = Vm("Cl-")
	60 if step_no = 1 then dif = 0 else dif = Vmol - d(step_no)
	62 if tot("Cl") > 10 or tc > 200 then goto 150
	100 if step_no = 1 then goto 150
	102 Vmol = Vm("Cl-")
	110 plot_xy mu^0.5, d(step_no), symbol = Triangle, line_w = 0, color = Blue
	 150 end
	END
-----------------------------------------
Beginning of batch-reaction calculations.
-----------------------------------------

Reaction step 1.

Using solution 1.	
Using temperature 1.	
Using pressure 1.	
Using reaction 1.	

Reaction 1.	

	 0.000e+000 moles of the following reaction have been added:

	                 Relative
	Reactant            moles

	HCl                  1.00000

	                 Relative
	Element             moles
	Cl                   1.00000
	H                    1.00000

-----------------------------Solution composition------------------------------

	Elements           Molality       Moles

	Pure water     

----------------------------Description of solution----------------------------

                                       pH  =   6.997      Charge balance
                                       pe  =  -0.163      Adjusted to redox equilibrium
       Specific Conductance (uS/cm, 25 oC) = 0
                          Density (g/cm3)  =   0.99704
                               Volume (L)  =   1.00297
                        Activity of water  =   1.000
                           Ionic strength  =  1.006e-007
                       Mass of water (kg)  =  1.000e+000
                 Total alkalinity (eq/kg)  =  9.660e-016
                    Total carbon (mol/kg)  =  0.000e+000
                       Total CO2 (mol/kg)  =  0.000e+000
                      Temperature (deg C)  =  25.00
                  Electrical balance (eq)  = -9.660e-016
 Percent error, 100*(Cat-|An|)/(Cat+|An|)  =  -0.00
                               Iterations  =   8
                                  Total H  = 1.110124e+002
                                  Total O  = 5.550622e+001

----------------------------Distribution of species----------------------------

                                               Log       Log       Log    mole V
   Species          Molality    Activity  Molality  Activity     Gamma   cm3/mol

   OH-            1.006e-007  1.006e-007    -6.997    -6.997    -0.000     -4.14
   H+             1.006e-007  1.006e-007    -6.997    -6.997    -0.000      0.00
   H2O            5.551e+001  1.000e+000     1.744     0.000     0.000     18.07
H(0)         3.040e-017
   H2             1.520e-017  1.520e-017   -16.818   -16.818     0.000     28.61
O(0)         0.000e+000
   O2             0.000e+000  0.000e+000   -58.744   -58.744     0.000     30.40

------------------------------Saturation indices-------------------------------

	Phase               SI   log IAP   log K(298 K,   1 atm)

	H2(g)           -13.72    -16.82   -3.10  H2
	H2O(g)           -1.50      0.00    1.50  H2O
	O2(g)           -55.85    -58.74   -2.89  O2


Reaction step 2.

Using solution 1.	
Using temperature 1.	
Using pressure 1.	
Using reaction 1.	

Reaction 1.	

	 3.346e-003 moles of the following reaction have been added:

	                 Relative
	Reactant            moles

	HCl                  1.00000

	                 Relative
	Element             moles
	Cl                   1.00000
	H                    1.00000

-----------------------------Solution composition------------------------------

	Elements           Molality       Moles

	Cl               3.346e-003  3.346e-003

----------------------------Description of solution----------------------------

                                       pH  =   2.501      Charge balance
                                       pe  =  15.074      Adjusted to redox equilibrium
       Specific Conductance (uS/cm, 25 oC) = 1375
                          Density (g/cm3)  =   0.99710
                               Volume (L)  =   1.00303
                        Activity of water  =   1.000
                           Ionic strength  =  3.346e-003
                       Mass of water (kg)  =  1.000e+000
                 Total alkalinity (eq/kg)  = -3.346e-003
                    Total carbon (mol/kg)  =  0.000e+000
                       Total CO2 (mol/kg)  =  0.000e+000
                      Temperature (deg C)  =  25.00
                  Electrical balance (eq)  =  2.111e-011
 Percent error, 100*(Cat-|An|)/(Cat+|An|)  =   0.00
                               Iterations  =  13
                                  Total H  = 1.110158e+002
                                  Total O  = 5.550622e+001

----------------------------Distribution of species----------------------------

                                               Log       Log       Log    mole V
   Species          Molality    Activity  Molality  Activity     Gamma   cm3/mol

   H+             3.346e-003  3.157e-003    -2.476    -2.501    -0.025      0.00
   OH-            3.417e-012  3.206e-012   -11.466   -11.494    -0.028     -4.08
   H2O            5.551e+001  9.999e-001     1.744    -0.000     0.000     18.07
Cl           3.346e-003
   Cl-            3.346e-003  3.140e-003    -2.476    -2.503    -0.028     18.10
H(0)         1.001e-038
   H2             5.005e-039  5.009e-039   -38.301   -38.300     0.000     28.61
O(0)         3.320e-016
   O2             1.660e-016  1.661e-016   -15.780   -15.780     0.000     30.40

------------------------------Saturation indices-------------------------------

	Phase               SI   log IAP   log K(298 K,   1 atm)

	H2(g)           -35.20    -38.30   -3.10  H2
	H2O(g)           -1.50     -0.00    1.50  H2O
	O2(g)           -12.89    -15.78   -2.89  O2


Reaction step 3.

Using solution 1.	
Using temperature 1.	
Using pressure 1.	
Using reaction 1.	

Reaction 1.	

	 3.510e-003 moles of the following reaction have been added:

	                 Relative
	Reactant            moles

	HCl                  1.00000

	                 Relative
	Element             moles
	Cl                   1.00000
	H                    1.00000

-----------------------------Solution composition------------------------------

	Elements           Molality       Moles

	Cl               3.510e-003  3.510e-003

----------------------------Description of solution----------------------------

                                       pH  =   2.480      Charge balance
                                       pe  =   3.311      Adjusted to redox equilibrium
       Specific Conductance (uS/cm, 25 oC) = 1441
                          Density (g/cm3)  =   0.99711
                               Volume (L)  =   1.00303
                        Activity of water  =   1.000
                           Ionic strength  =  3.510e-003
                       Mass of water (kg)  =  1.000e+000
                 Total alkalinity (eq/kg)  = -3.510e-003
                    Total carbon (mol/kg)  =  0.000e+000
                       Total CO2 (mol/kg)  =  0.000e+000
                      Temperature (deg C)  =  25.00
                  Electrical balance (eq)  = -1.762e-017
 Percent error, 100*(Cat-|An|)/(Cat+|An|)  =  -0.00
                               Iterations  =  10
                                  Total H  = 1.110159e+002
                                  Total O  = 5.550622e+001

----------------------------Distribution of species----------------------------

                                               Log       Log       Log    mole V
   Species          Molality    Activity  Molality  Activity     Gamma   cm3/mol

   H+             3.510e-003  3.308e-003    -2.455    -2.480    -0.026      0.00
   OH-            3.265e-012  3.059e-012   -11.486   -11.514    -0.028     -4.08
   H2O            5.551e+001  9.999e-001     1.744    -0.000     0.000     18.07
Cl           3.510e-003
   Cl-            3.510e-003  3.289e-003    -2.455    -2.483    -0.028     18.10
H(0)         3.694e-015
   H2             1.847e-015  1.848e-015   -14.734   -14.733     0.000     28.61
O(0)         0.000e+000
   O2             0.000e+000  0.000e+000   -62.914   -62.914     0.000     30.40

------------------------------Saturation indices-------------------------------

	Phase               SI   log IAP   log K(298 K,   1 atm)

	H2(g)           -11.63    -14.73   -3.10  H2
	H2O(g)           -1.50     -0.00    1.50  H2O
	O2(g)           -60.02    -62.91   -2.89  O2


Reaction step 4.

Using solution 1.	
Using temperature 1.	
Using pressure 1.	
Using reaction 1.	

Reaction 1.	

	 5.804e-003 moles of the following reaction have been added:

	                 Relative
	Reactant            moles

	HCl                  1.00000

	                 Relative
	Element             moles
	Cl                   1.00000
	H                    1.00000

-----------------------------Solution composition------------------------------

	Elements           Molality       Moles

	Cl               5.804e-003  5.804e-003

----------------------------Description of solution----------------------------

                                       pH  =   2.268      Charge balance
                                       pe  =   2.892      Adjusted to redox equilibrium
       Specific Conductance (uS/cm, 25 oC) = 2363
                          Density (g/cm3)  =   0.99715
                               Volume (L)  =   1.00307
                        Activity of water  =   1.000
                           Ionic strength  =  5.804e-003
                       Mass of water (kg)  =  1.000e+000
                 Total alkalinity (eq/kg)  = -5.804e-003
                    Total carbon (mol/kg)  =  0.000e+000
                       Total CO2 (mol/kg)  =  0.000e+000
                      Temperature (deg C)  =  25.00
                  Electrical balance (eq)  =  6.193e-013
 Percent error, 100*(Cat-|An|)/(Cat+|An|)  =   0.00
                               Iterations  =  12
                                  Total H  = 1.110182e+002
                                  Total O  = 5.550622e+001

----------------------------Distribution of species----------------------------

                                               Log       Log       Log    mole V
   Species          Molality    Activity  Molality  Activity     Gamma   cm3/mol

   H+             5.804e-003  5.395e-003    -2.236    -2.268    -0.032      0.00
   OH-            2.036e-012  1.876e-012   -11.691   -11.727    -0.036     -4.06
   H2O            5.551e+001  9.998e-001     1.744    -0.000     0.000     18.07
Cl           5.804e-003
   Cl-            5.804e-003  5.348e-003    -2.236    -2.272    -0.036     18.12
H(0)         6.774e-014
   H2             3.387e-014  3.391e-014   -13.470   -13.470     0.001     28.61
O(0)         0.000e+000
   O2             0.000e+000  0.000e+000   -65.442   -65.441     0.001     30.40

------------------------------Saturation indices-------------------------------

	Phase               SI   log IAP   log K(298 K,   1 atm)

	H2(g)           -10.37    -13.47   -3.10  H2
	H2O(g)           -1.50     -0.00    1.50  H2O
	O2(g)           -62.55    -65.44   -2.89  O2


Reaction step 5.

Using solution 1.	
Using temperature 1.	
Using pressure 1.	
Using reaction 1.	

Reaction 1.	

	 8.153e-003 moles of the following reaction have been added:

	                 Relative
	Reactant            moles

	HCl                  1.00000

	                 Relative
	Element             moles
	Cl                   1.00000
	H                    1.00000

-----------------------------Solution composition------------------------------

	Elements           Molality       Moles

	Cl               8.153e-003  8.153e-003

----------------------------Description of solution----------------------------

                                       pH  =   2.125      Charge balance
                                       pe  =  15.627      Adjusted to redox equilibrium
       Specific Conductance (uS/cm, 25 oC) = 3298
                          Density (g/cm3)  =   0.99719
                               Volume (L)  =   1.00311
                        Activity of water  =   1.000
                           Ionic strength  =  8.153e-003
                       Mass of water (kg)  =  1.000e+000
                 Total alkalinity (eq/kg)  = -8.153e-003
                    Total carbon (mol/kg)  =  0.000e+000
                       Total CO2 (mol/kg)  =  0.000e+000
                      Temperature (deg C)  =  25.00
                  Electrical balance (eq)  = -3.341e-017
 Percent error, 100*(Cat-|An|)/(Cat+|An|)  =  -0.00
                               Iterations  =  13
                                  Total H  = 1.110206e+002
                                  Total O  = 5.550622e+001

----------------------------Distribution of species----------------------------

                                               Log       Log       Log    mole V
   Species          Molality    Activity  Molality  Activity     Gamma   cm3/mol

   H+             8.153e-003  7.498e-003    -2.089    -2.125    -0.036      0.00
   OH-            1.486e-012  1.349e-012   -11.828   -11.870    -0.042     -4.04
   H2O            5.551e+001  9.997e-001     1.744    -0.000     0.000     18.07
Cl           8.153e-003
   Cl-            8.153e-003  7.411e-003    -2.089    -2.130    -0.041     18.13
H(0)         4.432e-039
   H2             2.216e-039  2.220e-039   -38.654   -38.654     0.001     28.61
O(0)         1.687e-015
   O2             8.437e-016  8.453e-016   -15.074   -15.073     0.001     30.40

------------------------------Saturation indices-------------------------------

	Phase               SI   log IAP   log K(298 K,   1 atm)

	H2(g)           -35.55    -38.65   -3.10  H2
	H2O(g)           -1.50     -0.00    1.50  H2O
	O2(g)           -12.18    -15.07   -2.89  O2


Reaction step 6.

Using solution 1.	
Using temperature 1.	
Using pressure 1.	
Using reaction 1.	

Reaction 1.	

	 1.005e-002 moles of the following reaction have been added:

	                 Relative
	Reactant            moles

	HCl                  1.00000

	                 Relative
	Element             moles
	Cl                   1.00000
	H                    1.00000

-----------------------------Solution composition------------------------------

	Elements           Molality       Moles

	Cl               1.005e-002  1.005e-002

----------------------------Description of solution----------------------------

                                       pH  =   2.037      Charge balance
                                       pe  =   3.621      Adjusted to redox equilibrium
       Specific Conductance (uS/cm, 25 oC) = 4047
                          Density (g/cm3)  =   0.99723
                               Volume (L)  =   1.00315
                        Activity of water  =   1.000
                           Ionic strength  =  1.005e-002
                       Mass of water (kg)  =  1.000e+000
                 Total alkalinity (eq/kg)  = -1.005e-002
                    Total carbon (mol/kg)  =  0.000e+000
                       Total CO2 (mol/kg)  =  0.000e+000
                      Temperature (deg C)  =  25.00
                  Electrical balance (eq)  =  1.776e-015
 Percent error, 100*(Cat-|An|)/(Cat+|An|)  =   0.00
                               Iterations  =  11
                                  Total H  = 1.110225e+002
                                  Total O  = 5.550622e+001

----------------------------Distribution of species----------------------------

                                               Log       Log       Log    mole V
   Species          Molality    Activity  Molality  Activity     Gamma   cm3/mol

   H+             1.005e-002  9.178e-003    -1.998    -2.037    -0.039      0.00
   OH-            1.225e-012  1.102e-012   -11.912   -11.958    -0.046     -4.03
   H2O            5.551e+001  9.997e-001     1.744    -0.000     0.000     18.07
Cl           1.005e-002
   Cl-            1.005e-002  9.050e-003    -1.998    -2.043    -0.045     18.14
H(0)         6.807e-015
   H2             3.404e-015  3.411e-015   -14.468   -14.467     0.001     28.61
O(0)         0.000e+000
   O2             0.000e+000  0.000e+000   -63.447   -63.446     0.001     30.40

------------------------------Saturation indices-------------------------------

	Phase               SI   log IAP   log K(298 K,   1 atm)

	H2(g)           -11.37    -14.47   -3.10  H2
	H2O(g)           -1.50     -0.00    1.50  H2O
	O2(g)           -60.55    -63.45   -2.89  O2


Reaction step 7.

Using solution 1.	
Using temperature 1.	
Using pressure 1.	
Using reaction 1.	

Reaction 1.	

	 1.090e-002 moles of the following reaction have been added:

	                 Relative
	Reactant            moles

	HCl                  1.00000

	                 Relative
	Element             moles
	Cl                   1.00000
	H                    1.00000

-----------------------------Solution composition------------------------------

	Elements           Molality       Moles

	Cl               1.090e-002  1.090e-002

----------------------------Description of solution----------------------------

                                       pH  =   2.003      Charge balance
                                       pe  =  15.805      Adjusted to redox equilibrium
       Specific Conductance (uS/cm, 25 oC) = 4382
                          Density (g/cm3)  =   0.99724
                               Volume (L)  =   1.00316
                        Activity of water  =   1.000
                           Ionic strength  =  1.090e-002
                       Mass of water (kg)  =  1.000e+000
                 Total alkalinity (eq/kg)  = -1.090e-002
                    Total carbon (mol/kg)  =  0.000e+000
                       Total CO2 (mol/kg)  =  0.000e+000
                      Temperature (deg C)  =  25.00
                  Electrical balance (eq)  =  2.550e-015
 Percent error, 100*(Cat-|An|)/(Cat+|An|)  =   0.00
                               Iterations  =  13
                                  Total H  = 1.110233e+002
                                  Total O  = 5.550622e+001

----------------------------Distribution of species----------------------------

                                               Log       Log       Log    mole V
   Species          Molality    Activity  Molality  Activity     Gamma   cm3/mol

   H+             1.090e-002  9.927e-003    -1.962    -2.003    -0.041      0.00
   OH-            1.137e-012  1.019e-012   -11.944   -11.992    -0.048     -4.03
   H2O            5.551e+001  9.996e-001     1.744    -0.000     0.000     18.07
Cl           1.090e-002
   Cl-            1.090e-002  9.780e-003    -1.962    -2.010    -0.047     18.14
H(0)         3.421e-039
   H2             1.710e-039  1.715e-039   -38.767   -38.766     0.001     28.61
O(0)         2.827e-015
   O2             1.413e-015  1.417e-015   -14.850   -14.849     0.001     30.40

------------------------------Saturation indices-------------------------------

	Phase               SI   log IAP   log K(298 K,   1 atm)

	H2(g)           -35.66    -38.77   -3.10  H2
	H2O(g)           -1.50     -0.00    1.50  H2O
	O2(g)           -11.96    -14.85   -2.89  O2


Reaction step 8.

Using solution 1.	
Using temperature 1.	
Using pressure 1.	
Using reaction 1.	

Reaction 1.	

	 1.992e-002 moles of the following reaction have been added:

	                 Relative
	Reactant            moles

	HCl                  1.00000

	                 Relative
	Element             moles
	Cl                   1.00000
	H                    1.00000

-----------------------------Solution composition------------------------------

	Elements           Molality       Moles

	Cl               1.992e-002  1.992e-002

----------------------------Description of solution----------------------------

                                       pH  =   1.752      Charge balance
                                       pe  =  16.019      Adjusted to redox equilibrium
       Specific Conductance (uS/cm, 25 oC) = 7888
                          Density (g/cm3)  =   0.99741
                               Volume (L)  =   1.00333
                        Activity of water  =   0.999
                           Ionic strength  =  1.992e-002
                       Mass of water (kg)  =  1.000e+000
                 Total alkalinity (eq/kg)  = -1.992e-002
                    Total carbon (mol/kg)  =  0.000e+000
                       Total CO2 (mol/kg)  =  0.000e+000
                      Temperature (deg C)  =  25.00
                  Electrical balance (eq)  =  2.968e-011
 Percent error, 100*(Cat-|An|)/(Cat+|An|)  =   0.00
                               Iterations  =  13
                                  Total H  = 1.110324e+002
                                  Total O  = 5.550622e+001

----------------------------Distribution of species----------------------------

                                               Log       Log       Log    mole V
   Species          Molality    Activity  Molality  Activity     Gamma   cm3/mol

   H+             1.992e-002  1.772e-002    -1.701    -1.752    -0.051      0.00
   OH-            6.583e-013  5.708e-013   -12.182   -12.244    -0.062     -3.98
   H2O            5.551e+001  9.993e-001     1.744    -0.000     0.000     18.07
Cl           1.992e-002
   Cl-            1.992e-002  1.730e-002    -1.701    -1.762    -0.061     18.18
H(0)         4.052e-039
   H2             2.026e-039  2.035e-039   -38.693   -38.691     0.002     28.61
O(0)         2.001e-015
   O2             1.000e-015  1.005e-015   -15.000   -14.998     0.002     30.40

------------------------------Saturation indices-------------------------------

	Phase               SI   log IAP   log K(298 K,   1 atm)

	H2(g)           -35.59    -38.69   -3.10  H2
	H2O(g)           -1.50     -0.00    1.50  H2O
	O2(g)           -12.11    -15.00   -2.89  O2


Reaction step 9.

Using solution 1.	
Using temperature 1.	
Using pressure 1.	
Using reaction 1.	

Reaction 1.	

	 2.032e-002 moles of the following reaction have been added:

	                 Relative
	Reactant            moles

	HCl                  1.00000

	                 Relative
	Element             moles
	Cl                   1.00000
	H                    1.00000

-----------------------------Solution composition------------------------------

	Elements           Molality       Moles

	Cl               2.032e-002  2.032e-002

----------------------------Description of solution----------------------------

                                       pH  =   1.743      Charge balance
                                       pe  =  15.944      Adjusted to redox equilibrium
       Specific Conductance (uS/cm, 25 oC) = 8042
                          Density (g/cm3)  =   0.99741
                               Volume (L)  =   1.00334
                        Activity of water  =   0.999
                           Ionic strength  =  2.032e-002
                       Mass of water (kg)  =  1.000e+000
                 Total alkalinity (eq/kg)  = -2.032e-002
                    Total carbon (mol/kg)  =  0.000e+000
                       Total CO2 (mol/kg)  =  0.000e+000
                      Temperature (deg C)  =  25.00
                  Electrical balance (eq)  = -1.309e-017
 Percent error, 100*(Cat-|An|)/(Cat+|An|)  =  -0.00
                               Iterations  =  13
                                  Total H  = 1.110328e+002
                                  Total O  = 5.550622e+001

----------------------------Distribution of species----------------------------

                                               Log       Log       Log    mole V
   Species          Molality    Activity  Molality  Activity     Gamma   cm3/mol

   H+             2.032e-002  1.806e-002    -1.692    -1.743    -0.051      0.00
   OH-            6.466e-013  5.600e-013   -12.189   -12.252    -0.062     -3.98
   H2O            5.551e+001  9.993e-001     1.744    -0.000     0.000     18.07
Cl           2.032e-002
   Cl-            2.032e-002  1.762e-002    -1.692    -1.754    -0.062     18.18
H(0)         5.953e-039
   H2             2.976e-039  2.990e-039   -38.526   -38.524     0.002     28.61
O(0)         9.267e-016
   O2             4.633e-016  4.655e-016   -15.334   -15.332     0.002     30.40

------------------------------Saturation indices-------------------------------

	Phase               SI   log IAP   log K(298 K,   1 atm)

	H2(g)           -35.42    -38.52   -3.10  H2
	H2O(g)           -1.50     -0.00    1.50  H2O
	O2(g)           -12.44    -15.33   -2.89  O2


Reaction step 10.

Using solution 1.	
Using temperature 1.	
Using pressure 1.	
Using reaction 1.	

Reaction 1.	

	 2.072e-002 moles of the following reaction have been added:

	                 Relative
	Reactant            moles

	HCl                  1.00000

	                 Relative
	Element             moles
	Cl                   1.00000
	H                    1.00000

-----------------------------Solution composition------------------------------

	Elements           Molality       Moles

	Cl               2.072e-002  2.072e-002

----------------------------Description of solution----------------------------

                                       pH  =   1.735      Charge balance
                                       pe  =  16.047      Adjusted to redox equilibrium
       Specific Conductance (uS/cm, 25 oC) = 8197
                          Density (g/cm3)  =   0.99742
                               Volume (L)  =   1.00334
                        Activity of water  =   0.999
                           Ionic strength  =  2.072e-002
                       Mass of water (kg)  =  1.000e+000
                 Total alkalinity (eq/kg)  = -2.072e-002
                    Total carbon (mol/kg)  =  0.000e+000
                       Total CO2 (mol/kg)  =  0.000e+000
                      Temperature (deg C)  =  25.00
                  Electrical balance (eq)  = -1.719e-017
 Percent error, 100*(Cat-|An|)/(Cat+|An|)  =  -0.00
                               Iterations  =  14
                                  Total H  = 1.110332e+002
                                  Total O  = 5.550622e+001

----------------------------Distribution of species----------------------------

                                               Log       Log       Log    mole V
   Species          Molality    Activity  Molality  Activity     Gamma   cm3/mol

   H+             2.072e-002  1.841e-002    -1.684    -1.735    -0.052      0.00
   OH-            6.353e-013  5.495e-013   -12.197   -12.260    -0.063     -3.98
   H2O            5.551e+001  9.993e-001     1.744    -0.000     0.000     18.07
Cl           2.072e-002
   Cl-            2.072e-002  1.795e-002    -1.684    -1.746    -0.062     18.18
H(0)         3.845e-039
   H2             1.923e-039  1.932e-039   -38.716   -38.714     0.002     28.61
O(0)         2.220e-015
   O2             1.110e-015  1.115e-015   -14.955   -14.953     0.002     30.40

------------------------------Saturation indices-------------------------------

	Phase               SI   log IAP   log K(298 K,   1 atm)

	H2(g)           -35.61    -38.71   -3.10  H2
	H2O(g)           -1.50     -0.00    1.50  H2O
	O2(g)           -12.06    -14.95   -2.89  O2


Reaction step 11.

Using solution 1.	
Using temperature 1.	
Using pressure 1.	
Using reaction 1.	

Reaction 1.	

	 2.918e-002 moles of the following reaction have been added:

	                 Relative
	Reactant            moles

	HCl                  1.00000

	                 Relative
	Element             moles
	Cl                   1.00000
	H                    1.00000

-----------------------------Solution composition------------------------------

	Elements           Molality       Moles

	Cl               2.918e-002  2.918e-002

----------------------------Description of solution----------------------------

                                       pH  =   1.593      Charge balance
                                       pe  =  16.206      Adjusted to redox equilibrium
       Specific Conductance (uS/cm, 25 oC) = 11431
                          Density (g/cm3)  =   0.99758
                               Volume (L)  =   1.00350
                        Activity of water  =   0.999
                           Ionic strength  =  2.918e-002
                       Mass of water (kg)  =  1.000e+000
                 Total alkalinity (eq/kg)  = -2.918e-002
                    Total carbon (mol/kg)  =  0.000e+000
                       Total CO2 (mol/kg)  =  0.000e+000
                      Temperature (deg C)  =  25.00
                  Electrical balance (eq)  =  3.579e-014
 Percent error, 100*(Cat-|An|)/(Cat+|An|)  =   0.00
                               Iterations  =  14
                                  Total H  = 1.110416e+002
                                  Total O  = 5.550622e+001

----------------------------Distribution of species----------------------------

                                               Log       Log       Log    mole V
   Species          Molality    Activity  Molality  Activity     Gamma   cm3/mol

   H+             2.918e-002  2.553e-002    -1.535    -1.593    -0.058      0.00
   OH-            4.683e-013  3.960e-013   -12.329   -12.402    -0.073     -3.95
   H2O            5.551e+001  9.990e-001     1.744    -0.000     0.000     18.07
Cl           2.918e-002
   Cl-            2.918e-002  2.473e-002    -1.535    -1.607    -0.072     18.20
H(0)         3.544e-039
   H2             1.772e-039  1.784e-039   -38.752   -38.749     0.003     28.61
O(0)         2.597e-015
   O2             1.298e-015  1.307e-015   -14.887   -14.884     0.003     30.40

------------------------------Saturation indices-------------------------------

	Phase               SI   log IAP   log K(298 K,   1 atm)

	H2(g)           -35.65    -38.75   -3.10  H2
	H2O(g)           -1.50     -0.00    1.50  H2O
	O2(g)           -11.99    -14.88   -2.89  O2


Reaction step 12.

Using solution 1.	
Using temperature 1.	
Using pressure 1.	
Using reaction 1.	

Reaction 1.	

	 3.001e-002 moles of the following reaction have been added:

	                 Relative
	Reactant            moles

	HCl                  1.00000

	                 Relative
	Element             moles
	Cl                   1.00000
	H                    1.00000

-----------------------------Solution composition------------------------------

	Elements           Molality       Moles

	Cl               3.001e-002  3.001e-002

----------------------------Description of solution----------------------------

                                       pH  =   1.581      Charge balance
                                       pe  =   3.977      Adjusted to redox equilibrium
       Specific Conductance (uS/cm, 25 oC) = 11748
                          Density (g/cm3)  =   0.99759
                               Volume (L)  =   1.00351
                        Activity of water  =   0.999
                           Ionic strength  =  3.001e-002
                       Mass of water (kg)  =  1.000e+000
                 Total alkalinity (eq/kg)  = -3.001e-002
                    Total carbon (mol/kg)  =  0.000e+000
                       Total CO2 (mol/kg)  =  0.000e+000
                      Temperature (deg C)  =  25.00
                  Electrical balance (eq)  =  1.400e-014
 Percent error, 100*(Cat-|An|)/(Cat+|An|)  =   0.00
                               Iterations  =  11
                                  Total H  = 1.110424e+002
                                  Total O  = 5.550622e+001

----------------------------Distribution of species----------------------------

                                               Log       Log       Log    mole V
   Species          Molality    Activity  Molality  Activity     Gamma   cm3/mol

   H+             3.001e-002  2.623e-002    -1.523    -1.581    -0.058      0.00
   OH-            4.567e-013  3.855e-013   -12.340   -12.414    -0.074     -3.94
   H2O            5.551e+001  9.990e-001     1.744    -0.000     0.000     18.07
Cl           3.001e-002
   Cl-            3.001e-002  2.538e-002    -1.523    -1.595    -0.073     18.21
H(0)         1.074e-014
   H2             5.369e-015  5.406e-015   -14.270   -14.267     0.003     28.61
O(0)         0.000e+000
   O2             0.000e+000  0.000e+000   -63.850   -63.847     0.003     30.40

------------------------------Saturation indices-------------------------------

	Phase               SI   log IAP   log K(298 K,   1 atm)

	H2(g)           -11.17    -14.27   -3.10  H2
	H2O(g)           -1.50     -0.00    1.50  H2O
	O2(g)           -60.95    -63.85   -2.89  O2


Reaction step 13.

Using solution 1.	
Using temperature 1.	
Using pressure 1.	
Using reaction 1.	

Reaction 1.	

	 3.964e-002 moles of the following reaction have been added:

	                 Relative
	Reactant            moles

	HCl                  1.00000

	                 Relative
	Element             moles
	Cl                   1.00000
	H                    1.00000

-----------------------------Solution composition------------------------------

	Elements           Molality       Moles

	Cl               3.964e-002  3.964e-002

----------------------------Description of solution----------------------------

                                       pH  =   1.466      Charge balance
                                       pe  =   3.819      Adjusted to redox equilibrium
       Specific Conductance (uS/cm, 25 oC) = 15390
                          Density (g/cm3)  =   0.99777
                               Volume (L)  =   1.00369
                        Activity of water  =   0.999
                           Ionic strength  =  3.964e-002
                       Mass of water (kg)  =  1.000e+000
                 Total alkalinity (eq/kg)  = -3.964e-002
                    Total carbon (mol/kg)  =  0.000e+000
                       Total CO2 (mol/kg)  =  0.000e+000
                      Temperature (deg C)  =  25.00
                  Electrical balance (eq)  =  1.820e-010
 Percent error, 100*(Cat-|An|)/(Cat+|An|)  =   0.00
                               Iterations  =  11
                                  Total H  = 1.110521e+002
                                  Total O  = 5.550622e+001

----------------------------Distribution of species----------------------------

                                               Log       Log       Log    mole V
   Species          Molality    Activity  Molality  Activity     Gamma   cm3/mol

   H+             3.964e-002  3.421e-002    -1.402    -1.466    -0.064      0.00
   OH-            3.573e-013  2.954e-013   -12.447   -12.530    -0.083     -3.91
   H2O            5.551e+001  9.987e-001     1.744    -0.001     0.000     18.07
Cl           3.964e-002
   Cl-            3.964e-002  3.287e-002    -1.402    -1.483    -0.081     18.23
H(0)         3.786e-014
   H2             1.893e-014  1.911e-014   -13.723   -13.719     0.004     28.61
O(0)         0.000e+000
   O2             0.000e+000  0.000e+000   -64.947   -64.943     0.004     30.40

------------------------------Saturation indices-------------------------------

	Phase               SI   log IAP   log K(298 K,   1 atm)

	H2(g)           -10.62    -13.72   -3.10  H2
	H2O(g)           -1.50     -0.00    1.50  H2O
	O2(g)           -62.05    -64.94   -2.89  O2


Reaction step 14.

Using solution 1.	
Using temperature 1.	
Using pressure 1.	
Using reaction 1.	

Reaction 1.	

	 4.000e-002 moles of the following reaction have been added:

	                 Relative
	Reactant            moles

	HCl                  1.00000

	                 Relative
	Element             moles
	Cl                   1.00000
	H                    1.00000

-----------------------------Solution composition------------------------------

	Elements           Molality       Moles

	Cl               4.000e-002  4.000e-002

----------------------------Description of solution----------------------------

                                       pH  =   1.462      Charge balance
                                       pe  =   3.862      Adjusted to redox equilibrium
       Specific Conductance (uS/cm, 25 oC) = 15525
                          Density (g/cm3)  =   0.99777
                               Volume (L)  =   1.00370
                        Activity of water  =   0.999
                           Ionic strength  =  4.000e-002
                       Mass of water (kg)  =  1.000e+000
                 Total alkalinity (eq/kg)  = -4.000e-002
                    Total carbon (mol/kg)  =  0.000e+000
                       Total CO2 (mol/kg)  =  0.000e+000
                      Temperature (deg C)  =  25.00
                  Electrical balance (eq)  =  3.025e-011
 Percent error, 100*(Cat-|An|)/(Cat+|An|)  =   0.00
                               Iterations  =  11
                                  Total H  = 1.110524e+002
                                  Total O  = 5.550622e+001

----------------------------Distribution of species----------------------------

                                               Log       Log       Log    mole V
   Species          Molality    Activity  Molality  Activity     Gamma   cm3/mol

   H+             4.000e-002  3.451e-002    -1.398    -1.462    -0.064      0.00
   OH-            3.545e-013  2.929e-013   -12.450   -12.533    -0.083     -3.91
   H2O            5.551e+001  9.986e-001     1.744    -0.001     0.000     18.07
Cl           4.000e-002
   Cl-            4.000e-002  3.314e-002    -1.398    -1.480    -0.082     18.23
H(0)         3.156e-014
   H2             1.578e-014  1.592e-014   -13.802   -13.798     0.004     28.61
O(0)         0.000e+000
   O2             0.000e+000  0.000e+000   -64.789   -64.785     0.004     30.40

------------------------------Saturation indices-------------------------------

	Phase               SI   log IAP   log K(298 K,   1 atm)

	H2(g)           -10.70    -13.80   -3.10  H2
	H2O(g)           -1.50     -0.00    1.50  H2O
	O2(g)           -61.89    -64.79   -2.89  O2


Reaction step 15.

Using solution 1.	
Using temperature 1.	
Using pressure 1.	
Using reaction 1.	

Reaction 1.	

	 5.050e-002 moles of the following reaction have been added:

	                 Relative
	Reactant            moles

	HCl                  1.00000

	                 Relative
	Element             moles
	Cl                   1.00000
	H                    1.00000

-----------------------------Solution composition------------------------------

	Elements           Molality       Moles

	Cl               5.050e-002  5.050e-002

----------------------------Description of solution----------------------------

                                       pH  =   1.366      Charge balance
                                       pe  =  16.163      Adjusted to redox equilibrium
       Specific Conductance (uS/cm, 25 oC) = 19457
                          Density (g/cm3)  =   0.99796
                               Volume (L)  =   1.00389
                        Activity of water  =   0.998
                           Ionic strength  =  5.050e-002
                       Mass of water (kg)  =  1.000e+000
                 Total alkalinity (eq/kg)  = -5.050e-002
                    Total carbon (mol/kg)  =  0.000e+000
                       Total CO2 (mol/kg)  =  0.000e+000
                      Temperature (deg C)  =  25.00
                  Electrical balance (eq)  =  1.239e-011
 Percent error, 100*(Cat-|An|)/(Cat+|An|)  =   0.00
                               Iterations  =  14
                                  Total H  = 1.110629e+002
                                  Total O  = 5.550622e+001

----------------------------Distribution of species----------------------------

                                               Log       Log       Log    mole V
   Species          Molality    Activity  Molality  Activity     Gamma   cm3/mol

   H+             5.050e-002  4.310e-002    -1.297    -1.366    -0.069      0.00
   OH-            2.892e-013  2.345e-013   -12.539   -12.630    -0.091     -3.87
   H2O            5.551e+001  9.983e-001     1.744    -0.001     0.000     18.07
Cl           5.050e-002
   Cl-            5.050e-002  4.109e-002    -1.297    -1.386    -0.090     18.25
H(0)         1.229e-038
   H2             6.145e-039  6.217e-039   -38.211   -38.206     0.005     28.61
O(0)         2.125e-016
   O2             1.062e-016  1.075e-016   -15.974   -15.969     0.005     30.40

------------------------------Saturation indices-------------------------------

	Phase               SI   log IAP   log K(298 K,   1 atm)

	H2(g)           -35.11    -38.21   -3.10  H2
	H2O(g)           -1.50     -0.00    1.50  H2O
	O2(g)           -13.08    -15.97   -2.89  O2


Reaction step 16.

Using solution 1.	
Using temperature 1.	
Using pressure 1.	
Using reaction 1.	

Reaction 1.	

	 5.765e-002 moles of the following reaction have been added:

	                 Relative
	Reactant            moles

	HCl                  1.00000

	                 Relative
	Element             moles
	Cl                   1.00000
	H                    1.00000

-----------------------------Solution composition------------------------------

	Elements           Molality       Moles

	Cl               5.765e-002  5.765e-002

----------------------------Description of solution----------------------------

                                       pH  =   1.311      Charge balance
                                       pe  =  16.484      Adjusted to redox equilibrium
       Specific Conductance (uS/cm, 25 oC) = 22117
                          Density (g/cm3)  =   0.99809
                               Volume (L)  =   1.00402
                        Activity of water  =   0.998
                           Ionic strength  =  5.765e-002
                       Mass of water (kg)  =  1.000e+000
                 Total alkalinity (eq/kg)  = -5.765e-002
                    Total carbon (mol/kg)  =  0.000e+000
                       Total CO2 (mol/kg)  =  0.000e+000
                      Temperature (deg C)  =  25.00
                  Electrical balance (eq)  =  1.534e-010
 Percent error, 100*(Cat-|An|)/(Cat+|An|)  =   0.00
                               Iterations  =  14
                                  Total H  = 1.110701e+002
                                  Total O  = 5.550622e+001

----------------------------Distribution of species----------------------------

                                               Log       Log       Log    mole V
   Species          Molality    Activity  Molality  Activity     Gamma   cm3/mol

   H+             5.765e-002  4.889e-002    -1.239    -1.311    -0.072      0.00
   OH-            2.577e-013  2.066e-013   -12.589   -12.685    -0.096     -3.85
   H2O            5.551e+001  9.980e-001     1.744    -0.001     0.000     18.07
Cl           5.765e-002
   Cl-            5.765e-002  4.641e-002    -1.239    -1.333    -0.094     18.27
H(0)         3.594e-039
   H2             1.797e-039  1.821e-039   -38.745   -38.740     0.006     28.61
O(0)         2.471e-015
   O2             1.235e-015  1.252e-015   -14.908   -14.902     0.006     30.40

------------------------------Saturation indices-------------------------------

	Phase               SI   log IAP   log K(298 K,   1 atm)

	H2(g)           -35.64    -38.74   -3.10  H2
	H2O(g)           -1.50     -0.00    1.50  H2O
	O2(g)           -12.01    -14.90   -2.89  O2


Reaction step 17.

Using solution 1.	
Using temperature 1.	
Using pressure 1.	
Using reaction 1.	

Reaction 1.	

	 6.184e-002 moles of the following reaction have been added:

	                 Relative
	Reactant            moles

	HCl                  1.00000

	                 Relative
	Element             moles
	Cl                   1.00000
	H                    1.00000

-----------------------------Solution composition------------------------------

	Elements           Molality       Moles

	Cl               6.184e-002  6.184e-002

----------------------------Description of solution----------------------------

                                       pH  =   1.282      Charge balance
                                       pe  =  16.518      Adjusted to redox equilibrium
       Specific Conductance (uS/cm, 25 oC) = 23670
                          Density (g/cm3)  =   0.99817
                               Volume (L)  =   1.00410
                        Activity of water  =   0.998
                           Ionic strength  =  6.184e-002
                       Mass of water (kg)  =  1.000e+000
                 Total alkalinity (eq/kg)  = -6.184e-002
                    Total carbon (mol/kg)  =  0.000e+000
                       Total CO2 (mol/kg)  =  0.000e+000
                      Temperature (deg C)  =  25.00
                  Electrical balance (eq)  =  7.108e-011
 Percent error, 100*(Cat-|An|)/(Cat+|An|)  =   0.00
                               Iterations  =  14
                                  Total H  = 1.110743e+002
                                  Total O  = 5.550622e+001

----------------------------Distribution of species----------------------------

                                               Log       Log       Log    mole V
   Species          Molality    Activity  Molality  Activity     Gamma   cm3/mol

   H+             6.184e-002  5.226e-002    -1.209    -1.282    -0.073      0.00
   OH-            2.425e-013  1.933e-013   -12.615   -12.714    -0.099     -3.84
   H2O            5.551e+001  9.979e-001     1.744    -0.001     0.000     18.07
Cl           6.184e-002
   Cl-            6.184e-002  4.949e-002    -1.209    -1.306    -0.097     18.28
H(0)         3.502e-039
   H2             1.751e-039  1.776e-039   -38.757   -38.751     0.006     28.61
O(0)         2.595e-015
   O2             1.297e-015  1.316e-015   -14.887   -14.881     0.006     30.40

------------------------------Saturation indices-------------------------------

	Phase               SI   log IAP   log K(298 K,   1 atm)

	H2(g)           -35.65    -38.75   -3.10  H2
	H2O(g)           -1.50     -0.00    1.50  H2O
	O2(g)           -11.99    -14.88   -2.89  O2


Reaction step 18.

Using solution 1.	
Using temperature 1.	
Using pressure 1.	
Using reaction 1.	

Reaction 1.	

	 7.539e-002 moles of the following reaction have been added:

	                 Relative
	Reactant            moles

	HCl                  1.00000

	                 Relative
	Element             moles
	Cl                   1.00000
	H                    1.00000

-----------------------------Solution composition------------------------------

	Elements           Molality       Moles

	Cl               7.539e-002  7.539e-002

----------------------------Description of solution----------------------------

                                       pH  =   1.200      Charge balance
                                       pe  =  16.444      Adjusted to redox equilibrium
       Specific Conductance (uS/cm, 25 oC) = 28668
                          Density (g/cm3)  =   0.99841
                               Volume (L)  =   1.00435
                        Activity of water  =   0.997
                           Ionic strength  =  7.539e-002
                       Mass of water (kg)  =  1.000e+000
                 Total alkalinity (eq/kg)  = -7.539e-002
                    Total carbon (mol/kg)  =  0.000e+000
                       Total CO2 (mol/kg)  =  0.000e+000
                      Temperature (deg C)  =  25.00
                  Electrical balance (eq)  =  2.972e-010
 Percent error, 100*(Cat-|An|)/(Cat+|An|)  =   0.00
                               Iterations  =  15
                                  Total H  = 1.110878e+002
                                  Total O  = 5.550622e+001

----------------------------Distribution of species----------------------------

                                               Log       Log       Log    mole V
   Species          Molality    Activity  Molality  Activity     Gamma   cm3/mol

   H+             7.539e-002  6.310e-002    -1.123    -1.200    -0.077      0.00
   OH-            2.044e-013  1.600e-013   -12.689   -12.796    -0.106     -3.80
   H2O            5.551e+001  9.974e-001     1.744    -0.001     0.000     18.07
Cl           7.539e-002
   Cl-            7.539e-002  5.931e-002    -1.123    -1.227    -0.104     18.30
H(0)         7.163e-039
   H2             3.581e-039  3.644e-039   -38.446   -38.438     0.008     28.61
O(0)         6.139e-016
   O2             3.069e-016  3.123e-016   -15.513   -15.505     0.008     30.40

------------------------------Saturation indices-------------------------------

	Phase               SI   log IAP   log K(298 K,   1 atm)

	H2(g)           -35.34    -38.44   -3.10  H2
	H2O(g)           -1.50     -0.00    1.50  H2O
	O2(g)           -12.61    -15.51   -2.89  O2


Reaction step 19.

Using solution 1.	
Using temperature 1.	
Using pressure 1.	
Using reaction 1.	

Reaction 1.	

	 7.969e-002 moles of the following reaction have been added:

	                 Relative
	Reactant            moles

	HCl                  1.00000

	                 Relative
	Element             moles
	Cl                   1.00000
	H                    1.00000

-----------------------------Solution composition------------------------------

	Elements           Molality       Moles

	Cl               7.969e-002  7.969e-002

----------------------------Description of solution----------------------------

                                       pH  =   1.177      Charge balance
                                       pe  =  16.388      Adjusted to redox equilibrium
       Specific Conductance (uS/cm, 25 oC) = 30246
                          Density (g/cm3)  =   0.99849
                               Volume (L)  =   1.00442
                        Activity of water  =   0.997
                           Ionic strength  =  7.969e-002
                       Mass of water (kg)  =  1.000e+000
                 Total alkalinity (eq/kg)  = -7.969e-002
                    Total carbon (mol/kg)  =  0.000e+000
                       Total CO2 (mol/kg)  =  0.000e+000
                      Temperature (deg C)  =  25.00
                  Electrical balance (eq)  =  4.365e-010
 Percent error, 100*(Cat-|An|)/(Cat+|An|)  =   0.00
                               Iterations  =  15
                                  Total H  = 1.110921e+002
                                  Total O  = 5.550622e+001

----------------------------Distribution of species----------------------------

                                               Log       Log       Log    mole V
   Species          Molality    Activity  Molality  Activity     Gamma   cm3/mol

   H+             7.969e-002  6.652e-002    -1.099    -1.177    -0.078      0.00
   OH-            1.949e-013  1.518e-013   -12.710   -12.819    -0.109     -3.79
   H2O            5.551e+001  9.973e-001     1.744    -0.001     0.000     18.07
Cl           7.969e-002
   Cl-            7.969e-002  6.238e-002    -1.099    -1.205    -0.106     18.31
H(0)         1.030e-038
   H2             5.151e-039  5.246e-039   -38.288   -38.280     0.008     28.61
O(0)         2.958e-016
   O2             1.479e-016  1.507e-016   -15.830   -15.822     0.008     30.40

------------------------------Saturation indices-------------------------------

	Phase               SI   log IAP   log K(298 K,   1 atm)

	H2(g)           -35.18    -38.28   -3.10  H2
	H2O(g)           -1.50     -0.00    1.50  H2O
	O2(g)           -12.93    -15.82   -2.89  O2


Reaction step 20.

Using solution 1.	
Using temperature 1.	
Using pressure 1.	
Using reaction 1.	

Reaction 1.	

	 7.993e-002 moles of the following reaction have been added:

	                 Relative
	Reactant            moles

	HCl                  1.00000

	                 Relative
	Element             moles
	Cl                   1.00000
	H                    1.00000

-----------------------------Solution composition------------------------------

	Elements           Molality       Moles

	Cl               7.993e-002  7.993e-002

----------------------------Description of solution----------------------------

                                       pH  =   1.176      Charge balance
                                       pe  =   4.527      Adjusted to redox equilibrium
       Specific Conductance (uS/cm, 25 oC) = 30335
                          Density (g/cm3)  =   0.99849
                               Volume (L)  =   1.00443
                        Activity of water  =   0.997
                           Ionic strength  =  7.993e-002
                       Mass of water (kg)  =  1.000e+000
                 Total alkalinity (eq/kg)  = -7.993e-002
                    Total carbon (mol/kg)  =  0.000e+000
                       Total CO2 (mol/kg)  =  0.000e+000
                      Temperature (deg C)  =  25.00
                  Electrical balance (eq)  =  3.663e-016
 Percent error, 100*(Cat-|An|)/(Cat+|An|)  =   0.00
                               Iterations  =  11
                                  Total H  = 1.110924e+002
                                  Total O  = 5.550622e+001

----------------------------Distribution of species----------------------------

                                               Log       Log       Log    mole V
   Species          Molality    Activity  Molality  Activity     Gamma   cm3/mol

   H+             7.993e-002  6.671e-002    -1.097    -1.176    -0.079      0.00
   OH-            1.944e-013  1.513e-013   -12.711   -12.820    -0.109     -3.78
   H2O            5.551e+001  9.973e-001     1.744    -0.001     0.000     18.07
Cl           7.993e-002
   Cl-            7.993e-002  6.255e-002    -1.097    -1.204    -0.106     18.31
H(0)         5.451e-015
   H2             2.725e-015  2.776e-015   -14.565   -14.557     0.008     28.61
O(0)         0.000e+000
   O2             0.000e+000  0.000e+000   -63.277   -63.269     0.008     30.40

------------------------------Saturation indices-------------------------------

	Phase               SI   log IAP   log K(298 K,   1 atm)

	H2(g)           -11.46    -14.56   -3.10  H2
	H2O(g)           -1.50     -0.00    1.50  H2O
	O2(g)           -60.38    -63.27   -2.89  O2


Reaction step 21.

Using solution 1.	
Using temperature 1.	
Using pressure 1.	
Using reaction 1.	

Reaction 1.	

	 9.071e-002 moles of the following reaction have been added:

	                 Relative
	Reactant            moles

	HCl                  1.00000

	                 Relative
	Element             moles
	Cl                   1.00000
	H                    1.00000

-----------------------------Solution composition------------------------------

	Elements           Molality       Moles

	Cl               9.071e-002  9.071e-002

----------------------------Description of solution----------------------------

                                       pH  =   1.124      Charge balance
                                       pe  =   4.675      Adjusted to redox equilibrium
       Specific Conductance (uS/cm, 25 oC) = 34279
                          Density (g/cm3)  =   0.99869
                               Volume (L)  =   1.00463
                        Activity of water  =   0.997
                           Ionic strength  =  9.071e-002
                       Mass of water (kg)  =  1.000e+000
                 Total alkalinity (eq/kg)  = -9.071e-002
                    Total carbon (mol/kg)  =  0.000e+000
                       Total CO2 (mol/kg)  =  0.000e+000
                      Temperature (deg C)  =  25.00
                  Electrical balance (eq)  =  1.634e-016
 Percent error, 100*(Cat-|An|)/(Cat+|An|)  =   0.00
                               Iterations  =  12
                                  Total H  = 1.111031e+002
                                  Total O  = 5.550622e+001

----------------------------Distribution of species----------------------------

                                               Log       Log       Log    mole V
   Species          Molality    Activity  Molality  Activity     Gamma   cm3/mol

   H+             9.071e-002  7.523e-002    -1.042    -1.124    -0.081      0.00
   OH-            1.744e-013  1.341e-013   -12.758   -12.873    -0.114     -3.76
   H2O            5.551e+001  9.969e-001     1.744    -0.001     0.000     18.07
Cl           9.071e-002
   Cl-            9.071e-002  7.018e-002    -1.042    -1.154    -0.111     18.33
H(0)         3.508e-015
   H2             1.754e-015  1.791e-015   -14.756   -14.747     0.009     28.61
O(0)         0.000e+000
   O2             0.000e+000  0.000e+000   -62.898   -62.889     0.009     30.40

------------------------------Saturation indices-------------------------------

	Phase               SI   log IAP   log K(298 K,   1 atm)

	H2(g)           -11.65    -14.75   -3.10  H2
	H2O(g)           -1.50     -0.00    1.50  H2O
	O2(g)           -60.00    -62.89   -2.89  O2


Reaction step 22.

Using solution 1.	
Using temperature 1.	
Using pressure 1.	
Using reaction 1.	

Reaction 1.	

	 9.898e-002 moles of the following reaction have been added:

	                 Relative
	Reactant            moles

	HCl                  1.00000

	                 Relative
	Element             moles
	Cl                   1.00000
	H                    1.00000

-----------------------------Solution composition------------------------------

	Elements           Molality       Moles

	Cl               9.898e-002  9.898e-002

----------------------------Description of solution----------------------------

                                       pH  =   1.088      Charge balance
                                       pe  =  16.637      Adjusted to redox equilibrium
       Specific Conductance (uS/cm, 25 oC) = 37292
                          Density (g/cm3)  =   0.99883
                               Volume (L)  =   1.00478
                        Activity of water  =   0.997
                           Ionic strength  =  9.898e-002
                       Mass of water (kg)  =  1.000e+000
                 Total alkalinity (eq/kg)  = -9.898e-002
                    Total carbon (mol/kg)  =  0.000e+000
                       Total CO2 (mol/kg)  =  0.000e+000
                      Temperature (deg C)  =  25.00
                  Electrical balance (eq)  =  6.033e-013
 Percent error, 100*(Cat-|An|)/(Cat+|An|)  =   0.00
                               Iterations  =  15
                                  Total H  = 1.111114e+002
                                  Total O  = 5.550622e+001

----------------------------Distribution of species----------------------------

                                               Log       Log       Log    mole V
   Species          Molality    Activity  Molality  Activity     Gamma   cm3/mol

   H+             9.898e-002  8.174e-002    -1.004    -1.088    -0.083      0.00
   OH-            1.619e-013  1.234e-013   -12.791   -12.909    -0.118     -3.73
   H2O            5.551e+001  9.966e-001     1.744    -0.001     0.000     18.07
Cl           9.898e-002
   Cl-            9.898e-002  7.595e-002    -1.004    -1.119    -0.115     18.34
H(0)         4.909e-039
   H2             2.455e-039  2.511e-039   -38.610   -38.600     0.010     28.61
O(0)         1.284e-015
   O2             6.418e-016  6.566e-016   -15.193   -15.183     0.010     30.40

------------------------------Saturation indices-------------------------------

	Phase               SI   log IAP   log K(298 K,   1 atm)

	H2(g)           -35.50    -38.60   -3.10  H2
	H2O(g)           -1.50     -0.00    1.50  H2O
	O2(g)           -12.29    -15.18   -2.89  O2


Reaction step 23.

Using solution 1.	
Using temperature 1.	
Using pressure 1.	
Using reaction 1.	

Reaction 1.	

	 1.001e-001 moles of the following reaction have been added:

	                 Relative
	Reactant            moles

	HCl                  1.00000

	                 Relative
	Element             moles
	Cl                   1.00000
	H                    1.00000

-----------------------------Solution composition------------------------------

	Elements           Molality       Moles

	Cl               1.001e-001  1.001e-001

----------------------------Description of solution----------------------------

                                       pH  =   1.083      Charge balance
                                       pe  =  16.632      Adjusted to redox equilibrium
       Specific Conductance (uS/cm, 25 oC) = 37699
                          Density (g/cm3)  =   0.99885
                               Volume (L)  =   1.00480
                        Activity of water  =   0.997
                           Ionic strength  =  1.001e-001
                       Mass of water (kg)  =  1.000e+000
                 Total alkalinity (eq/kg)  = -1.001e-001
                    Total carbon (mol/kg)  =  0.000e+000
                       Total CO2 (mol/kg)  =  0.000e+000
                      Temperature (deg C)  =  25.00
                  Electrical balance (eq)  =  7.414e-013
 Percent error, 100*(Cat-|An|)/(Cat+|An|)  =   0.00
                               Iterations  =  15
                                  Total H  = 1.111125e+002
                                  Total O  = 5.550622e+001

----------------------------Distribution of species----------------------------

                                               Log       Log       Log    mole V
   Species          Molality    Activity  Molality  Activity     Gamma   cm3/mol

   H+             1.001e-001  8.261e-002    -1.000    -1.083    -0.083      0.00
   OH-            1.603e-013  1.221e-013   -12.795   -12.913    -0.118     -3.73
   H2O            5.551e+001  9.966e-001     1.744    -0.001     0.000     18.07
Cl           1.001e-001
   Cl-            1.001e-001  7.673e-002    -1.000    -1.115    -0.115     18.34
H(0)         5.141e-039
   H2             2.570e-039  2.630e-039   -38.590   -38.580     0.010     28.61
O(0)         1.170e-015
   O2             5.848e-016  5.984e-016   -15.233   -15.223     0.010     30.40

------------------------------Saturation indices-------------------------------

	Phase               SI   log IAP   log K(298 K,   1 atm)

	H2(g)           -35.48    -38.58   -3.10  H2
	H2O(g)           -1.50     -0.00    1.50  H2O
	O2(g)           -12.33    -15.22   -2.89  O2


Reaction step 24.

Using solution 1.	
Using temperature 1.	
Using pressure 1.	
Using reaction 1.	

Reaction 1.	

	 1.159e-001 moles of the following reaction have been added:

	                 Relative
	Reactant            moles

	HCl                  1.00000

	                 Relative
	Element             moles
	Cl                   1.00000
	H                    1.00000

-----------------------------Solution composition------------------------------

	Elements           Molality       Moles

	Cl               1.159e-001  1.159e-001

----------------------------Description of solution----------------------------

                                       pH  =   1.022      Charge balance
                                       pe  =  16.741      Adjusted to redox equilibrium
       Specific Conductance (uS/cm, 25 oC) = 43430
                          Density (g/cm3)  =   0.99914
                               Volume (L)  =   1.00509
                        Activity of water  =   0.996
                           Ionic strength  =  1.159e-001
                       Mass of water (kg)  =  1.000e+000
                 Total alkalinity (eq/kg)  = -1.159e-001
                    Total carbon (mol/kg)  =  0.000e+000
                       Total CO2 (mol/kg)  =  0.000e+000
                      Temperature (deg C)  =  25.00
                  Electrical balance (eq)  =  5.265e-015
 Percent error, 100*(Cat-|An|)/(Cat+|An|)  =   0.00
                               Iterations  =  15
                                  Total H  = 1.111283e+002
                                  Total O  = 5.550622e+001

----------------------------Distribution of species----------------------------

                                               Log       Log       Log    mole V
   Species          Molality    Activity  Molality  Activity     Gamma   cm3/mol

   H+             1.159e-001  9.496e-002    -0.936    -1.022    -0.087      0.00
   OH-            1.415e-013  1.062e-013   -12.849   -12.974    -0.125     -3.69
   H2O            5.551e+001  9.961e-001     1.744    -0.002     0.000     18.07
Cl           1.159e-001
   Cl-            1.159e-001  8.761e-002    -0.936    -1.057    -0.122     18.36
H(0)         4.104e-039
   H2             2.052e-039  2.108e-039   -38.688   -38.676     0.012     28.61
O(0)         1.813e-015
   O2             9.066e-016  9.311e-016   -15.043   -15.031     0.012     30.40

------------------------------Saturation indices-------------------------------

	Phase               SI   log IAP   log K(298 K,   1 atm)

	H2(g)           -35.58    -38.68   -3.10  H2
	H2O(g)           -1.50     -0.00    1.50  H2O
	O2(g)           -12.14    -15.03   -2.89  O2


Reaction step 25.

Using solution 1.	
Using temperature 1.	
Using pressure 1.	
Using reaction 1.	

Reaction 1.	

	 1.240e-001 moles of the following reaction have been added:

	                 Relative
	Reactant            moles

	HCl                  1.00000

	                 Relative
	Element             moles
	Cl                   1.00000
	H                    1.00000

-----------------------------Solution composition------------------------------

	Elements           Molality       Moles

	Cl               1.240e-001  1.240e-001

----------------------------Description of solution----------------------------

                                       pH  =   0.995      Charge balance
                                       pe  =  16.798      Adjusted to redox equilibrium
       Specific Conductance (uS/cm, 25 oC) = 46356
                          Density (g/cm3)  =   0.99928
                               Volume (L)  =   1.00524
                        Activity of water  =   0.996
                           Ionic strength  =  1.240e-001
                       Mass of water (kg)  =  1.000e+000
                 Total alkalinity (eq/kg)  = -1.240e-001
                    Total carbon (mol/kg)  =  0.000e+000
                       Total CO2 (mol/kg)  =  0.000e+000
                      Temperature (deg C)  =  25.00
                  Electrical balance (eq)  =  1.899e-016
 Percent error, 100*(Cat-|An|)/(Cat+|An|)  =   0.00
                               Iterations  =  15
                                  Total H  = 1.111364e+002
                                  Total O  = 5.550622e+001

----------------------------Distribution of species----------------------------

                                               Log       Log       Log    mole V
   Species          Molality    Activity  Molality  Activity     Gamma   cm3/mol

   H+             1.240e-001  1.013e-001    -0.907    -0.995    -0.088      0.00
   OH-            1.336e-013  9.954e-014   -12.874   -13.002    -0.128     -3.67
   H2O            5.551e+001  9.958e-001     1.744    -0.002     0.000     18.07
Cl           1.240e-001
   Cl-            1.240e-001  9.312e-002    -0.907    -1.031    -0.124     18.37
H(0)         3.577e-039
   H2             1.789e-039  1.840e-039   -38.747   -38.735     0.012     28.61
O(0)         2.372e-015
   O2             1.186e-015  1.220e-015   -14.926   -14.914     0.012     30.40

------------------------------Saturation indices-------------------------------

	Phase               SI   log IAP   log K(298 K,   1 atm)

	H2(g)           -35.63    -38.74   -3.10  H2
	H2O(g)           -1.50     -0.00    1.50  H2O
	O2(g)           -12.02    -14.91   -2.89  O2


Reaction step 26.

Using solution 1.	
Using temperature 1.	
Using pressure 1.	
Using reaction 1.	

Reaction 1.	

	 1.257e-001 moles of the following reaction have been added:

	                 Relative
	Reactant            moles

	HCl                  1.00000

	                 Relative
	Element             moles
	Cl                   1.00000
	H                    1.00000

-----------------------------Solution composition------------------------------

	Elements           Molality       Moles

	Cl               1.256e-001  1.256e-001

----------------------------Description of solution----------------------------

                                       pH  =   0.989      Charge balance
                                       pe  =  16.843      Adjusted to redox equilibrium
       Specific Conductance (uS/cm, 25 oC) = 46951
                          Density (g/cm3)  =   0.99931
                               Volume (L)  =   1.00527
                        Activity of water  =   0.996
                           Ionic strength  =  1.256e-001
                       Mass of water (kg)  =  1.000e+000
                 Total alkalinity (eq/kg)  = -1.256e-001
                    Total carbon (mol/kg)  =  0.000e+000
                       Total CO2 (mol/kg)  =  0.000e+000
                      Temperature (deg C)  =  25.00
                  Electrical balance (eq)  =  1.260e-014
 Percent error, 100*(Cat-|An|)/(Cat+|An|)  =   0.00
                               Iterations  =  14
                                  Total H  = 1.111381e+002
                                  Total O  = 5.550622e+001

----------------------------Distribution of species----------------------------

                                               Log       Log       Log    mole V
   Species          Molality    Activity  Molality  Activity     Gamma   cm3/mol

   H+             1.256e-001  1.025e-001    -0.901    -0.989    -0.088      0.00
   OH-            1.321e-013  9.829e-014   -12.879   -13.007    -0.128     -3.67
   H2O            5.551e+001  9.957e-001     1.744    -0.002     0.000     18.07
Cl           1.256e-001
   Cl-            1.256e-001  9.424e-002    -0.901    -1.026    -0.125     18.37
H(0)         2.978e-039
   H2             1.489e-039  1.533e-039   -38.827   -38.814     0.013     28.61
O(0)         3.417e-015
   O2             1.709e-015  1.759e-015   -14.767   -14.755     0.013     30.40

------------------------------Saturation indices-------------------------------

	Phase               SI   log IAP   log K(298 K,   1 atm)

	H2(g)           -35.71    -38.81   -3.10  H2
	H2O(g)           -1.50     -0.00    1.50  H2O
	O2(g)           -11.86    -14.75   -2.89  O2


Reaction step 27.

Using solution 1.	
Using temperature 1.	
Using pressure 1.	
Using reaction 1.	

Reaction 1.	

	 1.382e-001 moles of the following reaction have been added:

	                 Relative
	Reactant            moles

	HCl                  1.00000

	                 Relative
	Element             moles
	Cl                   1.00000
	H                    1.00000

-----------------------------Solution composition------------------------------

	Elements           Molality       Moles

	Cl               1.382e-001  1.382e-001

----------------------------Description of solution----------------------------

                                       pH  =   0.950      Charge balance
                                       pe  =  16.765      Adjusted to redox equilibrium
       Specific Conductance (uS/cm, 25 oC) = 51470
                          Density (g/cm3)  =   0.99953
                               Volume (L)  =   1.00551
                        Activity of water  =   0.995
[...]
                        Activity of water  =   0.916
                           Ionic strength  =  4.920e+000
                       Mass of water (kg)  =  1.000e+000
                 Total alkalinity (eq/kg)  =  1.737e-015
                    Total carbon (mol/kg)  =  0.000e+000
                       Total CO2 (mol/kg)  =  0.000e+000
                      Temperature (deg C)  =  25.00
                  Electrical balance (eq)  = -7.239e-014
 Percent error, 100*(Cat-|An|)/(Cat+|An|)  =  -0.00
                               Iterations  =   5
                                  Total H  = 1.110124e+002
                                  Total O  = 5.550622e+001

----------------------------Distribution of species----------------------------

                                               Log       Log       Log    mole V
   Species          Molality    Activity  Molality  Activity     Gamma   cm3/mol

   H+             3.508e-007  2.485e-007    -6.455    -6.605    -0.150      0.00
   OH-            7.689e-008  3.692e-008    -7.114    -7.433    -0.319     (0)  
   H2O            5.551e+001  9.164e-001     1.744    -0.038     0.000     18.07
Ca           1.640e+000
   Ca+2           1.640e+000  1.127e+000     0.215     0.052    -0.163     -8.19
   CaOH+          2.739e-007  6.899e-007    -6.562    -6.161     0.401     (0)  
Cl           3.280e+000
   Cl-            3.280e+000  1.866e+000     0.516     0.271    -0.245     14.84
H(0)         0.000e+000
   H2             0.000e+000  2.324e-040   -40.126   -39.634     0.492     (0)  
O(0)         4.176e-014
   O2             2.088e-014  6.483e-014   -13.680   -13.188     0.492     (0)  

------------------------------Saturation indices-------------------------------

	Phase               SI   log IAP   log K(298 K,   1 atm)

	H2(g)           -36.48    -39.63   -3.15  H2
	H2O(g)           -1.55     -0.04    1.51  H2O
	O2(g)           -10.30    -13.19   -2.89  O2


Reaction step 22.

Using solution 1.	
Using reaction 1.	

Reaction 1.	

	 2.500e-001 moles of the following reaction have been added:

	                 Relative
	Reactant            moles

	CaCl2                1.00000

	                 Relative
	Element             moles
	Ca                   1.00000
	Cl                   2.00000

-----------------------------Solution composition------------------------------

	Elements           Molality       Moles

	Ca               1.890e+000  1.890e+000
	Cl               3.780e+000  3.780e+000

----------------------------Description of solution----------------------------

                                       pH  =   6.583      Charge balance
                                       pe  =  11.698      Adjusted to redox equilibrium
       Specific Conductance (uS/cm, 25 oC) = 271735
                          Density (g/cm3)  =   1.16016
                               Volume (L)  =   1.04276
                        Activity of water  =   0.904
                           Ionic strength  =  5.670e+000
                       Mass of water (kg)  =  1.000e+000
                 Total alkalinity (eq/kg)  =  1.782e-015
                    Total carbon (mol/kg)  =  0.000e+000
                       Total CO2 (mol/kg)  =  0.000e+000
                      Temperature (deg C)  =  25.00
                  Electrical balance (eq)  = -7.106e-014
 Percent error, 100*(Cat-|An|)/(Cat+|An|)  =  -0.00
                               Iterations  =   5
                                  Total H  = 1.110124e+002
                                  Total O  = 5.550622e+001

----------------------------Distribution of species----------------------------

                                               Log       Log       Log    mole V
   Species          Molality    Activity  Molality  Activity     Gamma   cm3/mol

   H+             3.703e-007  2.615e-007    -6.431    -6.583    -0.151      0.00
   OH-            7.310e-008  3.459e-008    -7.136    -7.461    -0.325     (0)  
   H2O            5.551e+001  9.036e-001     1.744    -0.044     0.000     18.07
Ca           1.890e+000
   Ca+2           1.890e+000  1.670e+000     0.276     0.223    -0.054     -7.38
   CaOH+          2.972e-007  9.580e-007    -6.527    -6.019     0.508     (0)  
Cl           3.780e+000
   Cl-            3.780e+000  2.176e+000     0.577     0.338    -0.240     14.21
H(0)         0.000e+000
   H2             0.000e+000  1.943e-040   -40.278   -39.711     0.567     (0)  
O(0)         4.885e-014
   O2             2.442e-014  9.012e-014   -13.612   -13.045     0.567     (0)  

------------------------------Saturation indices-------------------------------

	Phase               SI   log IAP   log K(298 K,   1 atm)

	H2(g)           -36.56    -39.71   -3.15  H2
	H2O(g)           -1.55     -0.04    1.51  H2O
	O2(g)           -10.15    -13.05   -2.89  O2


Reaction step 23.

Using solution 1.	
Using reaction 1.	

Reaction 1.	

	 2.500e-001 moles of the following reaction have been added:

	                 Relative
	Reactant            moles

	CaCl2                1.00000

	                 Relative
	Element             moles
	Ca                   1.00000
	Cl                   2.00000

-----------------------------Solution composition------------------------------

	Elements           Molality       Moles

	Ca               2.140e+000  2.140e+000
	Cl               4.280e+000  4.280e+000

----------------------------Description of solution----------------------------

                                       pH  =   6.562      Charge balance
                                       pe  =  11.740      Adjusted to redox equilibrium
       Specific Conductance (uS/cm, 25 oC) = 338290
                          Density (g/cm3)  =   1.18199
                               Volume (L)  =   1.04697
                        Activity of water  =   0.891
                           Ionic strength  =  6.420e+000
                       Mass of water (kg)  =  1.000e+000
                 Total alkalinity (eq/kg)  =  1.677e-015
                    Total carbon (mol/kg)  =  0.000e+000
                       Total CO2 (mol/kg)  =  0.000e+000
                      Temperature (deg C)  =  25.00
                  Electrical balance (eq)  = -7.012e-014
 Percent error, 100*(Cat-|An|)/(Cat+|An|)  =  -0.00
                               Iterations  =   5
                                  Total H  = 1.110124e+002
                                  Total O  = 5.550622e+001

----------------------------Distribution of species----------------------------

                                               Log       Log       Log    mole V
   Species          Molality    Activity  Molality  Activity     Gamma   cm3/mol

   H+             3.888e-007  2.738e-007    -6.410    -6.562    -0.152      0.00
   OH-            6.967e-008  3.257e-008    -7.157    -7.487    -0.330     (0)  
   H2O            5.551e+001  8.909e-001     1.744    -0.050     0.000     18.07
Ca           2.140e+000
   Ca+2           2.140e+000  2.445e+000     0.330     0.388     0.058     -6.61
   CaOH+          3.191e-007  1.320e-006    -6.496    -5.879     0.617     (0)  
Cl           4.280e+000
   Cl-            4.280e+000  2.497e+000     0.631     0.397    -0.234     13.58
H(0)         0.000e+000
   H2             0.000e+000  1.757e-040   -40.397   -39.755     0.642     (0)  
O(0)         4.890e-014
   O2             2.445e-014  1.072e-013   -13.612   -12.970     0.642     (0)  

------------------------------Saturation indices-------------------------------

	Phase               SI   log IAP   log K(298 K,   1 atm)

	H2(g)           -36.61    -39.76   -3.15  H2
	H2O(g)           -1.56     -0.05    1.51  H2O
	O2(g)           -10.08    -12.97   -2.89  O2


Reaction step 24.

Using solution 1.	
Using reaction 1.	

Reaction 1.	

	 2.500e-001 moles of the following reaction have been added:

	                 Relative
	Reactant            moles

	CaCl2                1.00000

	                 Relative
	Element             moles
	Ca                   1.00000
	Cl                   2.00000

-----------------------------Solution composition------------------------------

	Elements           Molality       Moles

	Ca               2.390e+000  2.390e+000
	Cl               4.780e+000  4.780e+000

----------------------------Description of solution----------------------------

                                       pH  =   6.544      Charge balance
                                       pe  =  11.763      Adjusted to redox equilibrium
       Specific Conductance (uS/cm, 25 oC) = 374472
                          Density (g/cm3)  =   1.20407
                               Volume (L)  =   1.05082
                        Activity of water  =   0.878
                           Ionic strength  =  7.170e+000
                       Mass of water (kg)  =  1.000e+000
                 Total alkalinity (eq/kg)  =  1.797e-015
                    Total carbon (mol/kg)  =  0.000e+000
                       Total CO2 (mol/kg)  =  0.000e+000
                      Temperature (deg C)  =  25.00
                  Electrical balance (eq)  = -7.036e-014
 Percent error, 100*(Cat-|An|)/(Cat+|An|)  =  -0.00
                               Iterations  =   5
                                  Total H  = 1.110124e+002
                                  Total O  = 5.550622e+001

----------------------------Distribution of species----------------------------

                                               Log       Log       Log    mole V
   Species          Molality    Activity  Molality  Activity     Gamma   cm3/mol

   H+             4.065e-007  2.857e-007    -6.391    -6.544    -0.153      0.00
   OH-            6.653e-008  3.077e-008    -7.177    -7.512    -0.335     (0)  
   H2O            5.551e+001  8.781e-001     1.744    -0.056     0.000     18.07
Ca           2.390e+000
   Ca+2           2.390e+000  3.544e+000     0.378     0.549     0.171     -5.87
   CaOH+          3.399e-007  1.808e-006    -6.469    -5.743     0.726     (0)  
Cl           4.780e+000
   Cl-            4.780e+000  2.832e+000     0.679     0.452    -0.227     12.95
H(0)         0.000e+000
   H2             0.000e+000  1.719e-040   -40.482   -39.765     0.717     (0)  
O(0)         4.173e-014
   O2             2.087e-014  1.088e-013   -13.681   -12.964     0.717     (0)  

------------------------------Saturation indices-------------------------------

	Phase               SI   log IAP   log K(298 K,   1 atm)

	H2(g)           -36.61    -39.76   -3.15  H2
	H2O(g)           -1.57     -0.06    1.51  H2O
	O2(g)           -10.07    -12.96   -2.89  O2


Reaction step 25.

Using solution 1.	
Using reaction 1.	

Reaction 1.	

	 2.500e-001 moles of the following reaction have been added:

	                 Relative
	Reactant            moles

	CaCl2                1.00000

	                 Relative
	Element             moles
	Ca                   1.00000
	Cl                   2.00000

-----------------------------Solution composition------------------------------

	Elements           Molality       Moles

	Ca               2.640e+000  2.640e+000
	Cl               5.280e+000  5.280e+000

----------------------------Description of solution----------------------------

                                       pH  =   6.527      Charge balance
                                       pe  =  11.819      Adjusted to redox equilibrium
       Specific Conductance (uS/cm, 25 oC) = 411224
                          Density (g/cm3)  =   1.22642
                               Volume (L)  =   1.05429
                        Activity of water  =   0.865
                           Ionic strength  =  7.920e+000
                       Mass of water (kg)  =  1.000e+000
                 Total alkalinity (eq/kg)  =  2.260e-015
                    Total carbon (mol/kg)  =  0.000e+000
                       Total CO2 (mol/kg)  =  0.000e+000
                      Temperature (deg C)  =  25.00
                  Electrical balance (eq)  = -7.102e-014
 Percent error, 100*(Cat-|An|)/(Cat+|An|)  =  -0.00
                               Iterations  =   5
                                  Total H  = 1.110124e+002
                                  Total O  = 5.550622e+001

----------------------------Distribution of species----------------------------

                                               Log       Log       Log    mole V
   Species          Molality    Activity  Molality  Activity     Gamma   cm3/mol

   H+             4.235e-007  2.970e-007    -6.373    -6.527    -0.154      0.00
   OH-            6.364e-008  2.916e-008    -7.196    -7.535    -0.339     (0)  
   H2O            5.551e+001  8.654e-001     1.744    -0.063     0.000     18.07
Ca           2.640e+000
   Ca+2           2.640e+000  5.096e+000     0.422     0.707     0.286     -5.16
   CaOH+          3.598e-007  2.464e-006    -6.444    -5.608     0.836     (0)  
Cl           5.280e+000
   Cl-            5.280e+000  3.181e+000     0.723     0.503    -0.220     12.30
H(0)         0.000e+000
   H2             0.000e+000  1.440e-040   -40.634   -39.842     0.792     (0)  
O(0)         4.861e-014
   O2             2.430e-014  1.506e-013   -13.614   -12.822     0.792     (0)  

------------------------------Saturation indices-------------------------------

	Phase               SI   log IAP   log K(298 K,   1 atm)

	H2(g)           -36.69    -39.84   -3.15  H2
	H2O(g)           -1.57     -0.06    1.51  H2O
	O2(g)            -9.93    -12.82   -2.89  O2


Reaction step 26.

Using solution 1.	
Using reaction 1.	

Reaction 1.	

	 2.500e-001 moles of the following reaction have been added:

	                 Relative
	Reactant            moles

	CaCl2                1.00000

	                 Relative
	Element             moles
	Ca                   1.00000
	Cl                   2.00000

-----------------------------Solution composition------------------------------

	Elements           Molality       Moles

	Ca               2.890e+000  2.890e+000
	Cl               5.780e+000  5.780e+000

----------------------------Description of solution----------------------------

                                       pH  =   6.511      Charge balance
                                       pe  =  11.871      Adjusted to redox equilibrium
       Specific Conductance (uS/cm, 25 oC) = 448698
                          Density (g/cm3)  =   1.24909
                               Volume (L)  =   1.05737
                        Activity of water  =   0.853
                           Ionic strength  =  8.670e+000
                       Mass of water (kg)  =  1.000e+000
                 Total alkalinity (eq/kg)  =  1.969e-015
                    Total carbon (mol/kg)  =  0.000e+000
                       Total CO2 (mol/kg)  =  0.000e+000
                      Temperature (deg C)  =  25.00
                  Electrical balance (eq)  = -7.223e-014
 Percent error, 100*(Cat-|An|)/(Cat+|An|)  =  -0.00
                               Iterations  =   5
                                  Total H  = 1.110124e+002
                                  Total O  = 5.550622e+001

----------------------------Distribution of species----------------------------

                                               Log       Log       Log    mole V
   Species          Molality    Activity  Molality  Activity     Gamma   cm3/mol

   H+             4.399e-007  3.080e-007    -6.357    -6.511    -0.155      0.00
   OH-            6.097e-008  2.771e-008    -7.215    -7.557    -0.342     (0)  
   H2O            5.551e+001  8.526e-001     1.744    -0.069     0.000     18.07
Ca           2.890e+000
   Ca+2           2.890e+000  7.281e+000     0.461     0.862     0.401     -4.48
   CaOH+          3.789e-007  3.345e-006    -6.421    -5.476     0.946     (0)  
Cl           5.780e+000
   Cl-            5.780e+000  3.544e+000     0.762     0.550    -0.212     11.65
H(0)         0.000e+000
   H2             0.000e+000  1.214e-040   -40.783   -39.916     0.867     (0)  
O(0)         5.586e-014
   O2             2.793e-014  2.056e-013   -13.554   -12.687     0.867     (0)  

------------------------------Saturation indices-------------------------------

	Phase               SI   log IAP   log K(298 K,   1 atm)

	H2(g)           -36.77    -39.92   -3.15  H2
	H2O(g)           -1.58     -0.07    1.51  H2O
	O2(g)            -9.79    -12.69   -2.89  O2


Reaction step 27.

Using solution 1.	
Using reaction 1.	

Reaction 1.	

	 2.500e-001 moles of the following reaction have been added:

	                 Relative
	Reactant            moles

	CaCl2                1.00000

	                 Relative
	Element             moles
	Ca                   1.00000
	Cl                   2.00000

-----------------------------Solution composition------------------------------

	Elements           Molality       Moles

	Ca               3.140e+000  3.140e+000
	Cl               6.280e+000  6.280e+000

----------------------------Description of solution----------------------------

                                       pH  =   6.497      Charge balance
                                       pe  =  11.908      Adjusted to redox equilibrium
       Specific Conductance (uS/cm, 25 oC) = 487045
                          Density (g/cm3)  =   1.27212
                               Volume (L)  =   1.06004
                        Activity of water  =   0.840
                           Ionic strength  =  9.420e+000
                       Mass of water (kg)  =  1.000e+000
                 Total alkalinity (eq/kg)  =  2.288e-015
                    Total carbon (mol/kg)  =  0.000e+000
                       Total CO2 (mol/kg)  =  0.000e+000
                      Temperature (deg C)  =  25.00
                  Electrical balance (eq)  = -6.996e-014
 Percent error, 100*(Cat-|An|)/(Cat+|An|)  =  -0.00
                               Iterations  =   5
                                  Total H  = 1.110124e+002
                                  Total O  = 5.550622e+001

----------------------------Distribution of species----------------------------

                                               Log       Log       Log    mole V
   Species          Molality    Activity  Molality  Activity     Gamma   cm3/mol

   H+             4.557e-007  3.186e-007    -6.341    -6.497    -0.155      0.00
   OH-            5.849e-008  2.639e-008    -7.233    -7.579    -0.346     (0)  
   H2O            5.551e+001  8.399e-001     1.744    -0.076     0.000     18.07
Ca           3.140e+000
   Ca+2           3.140e+000  1.035e+001     0.497     1.015     0.518     -3.81
   CaOH+          3.972e-007  4.525e-006    -6.401    -5.344     1.057     (0)  
Cl           6.280e+000
   Cl-            6.280e+000  3.923e+000     0.798     0.594    -0.204     10.99
H(0)         0.000e+000
   H2             0.000e+000  1.098e-040   -40.901   -39.959     0.942     (0)  
O(0)         5.570e-014
   O2             2.785e-014  2.437e-013   -13.555   -12.613     0.942     (0)  

------------------------------Saturation indices-------------------------------

	Phase               SI   log IAP   log K(298 K,   1 atm)

	H2(g)           -36.81    -39.96   -3.15  H2
	H2O(g)           -1.59     -0.08    1.51  H2O
	O2(g)            -9.72    -12.61   -2.89  O2


------------------
End of simulation.
------------------

-------------------------------------
Reading input data for simulation 12.
-------------------------------------

-------------------------------
End of Run after 0.333 Seconds.
-------------------------------

