   Input file: CO2_conc_PR_EQ
  Output file: CO2_conc_PR_EQ.out
Database file: ../database/phreeqc.dat

------------------
Reading data base.
------------------

	SOLUTION_MASTER_SPECIES
	SOLUTION_SPECIES
	PHASES
	EXCHANGE_MASTER_SPECIES
	EXCHANGE_SPECIES
	SURFACE_MASTER_SPECIES
	SURFACE_SPECIES
	RATES
	END
------------------------------------
Reading input data for simulation 1.
------------------------------------

	DATABASE ../database/phreeqc.dat
	SOLUTION_SPECIES
	Na+ = Na+
		gamma	4.0	0.075
		dw	 1.33e-9
		millero -3.46 0.1092 -0.000768 2.698 -0.106 0.001651
		vm -2.15 0.0193 2.23e-4  6.2e-3 0.015 -2.74e-4  -0.9e-3  0.35 # NaCl.xls, Laliberte, 2009. Halite solubility
	Cl- = Cl-
		gamma	3.5	0.015
		dw	 2.03e-9
		millero 16.37 0.0896 -0.001264 -1.494 0.034 -0.000621
		vm 16.26 0.104 -1.25e-3  0.467 -0.027 2.95e-4  -1e-3  0.04 # 0-100 oC, HCl.xls, Laliberte, 2009. Halite solubility
	SO4-2 = SO4-2
		gamma	5.0	-0.04
		dw	 1.07e-9
		millero 9.26 0.284 -0.003808 0.4348 -0.0099143 -8.4762e-05
		vm 9.55 0.297 -3e-3  2.06 -0.08 7.08e-4  -9e-3  0.017 # Na2SO4.xls, Laliberte, 2009; Phulela and Pitzer, 1986; Gypsum/Anhydrite solubility.  0-200 oC, 1-1000 atm.
	CO3-2 + 2 H+ = CO2 + H2O
		log_k	16.681
		delta_h -5.738	kcal
		analytical_expression	464.1965	0.09344813	-26986.16	-165.75951	2248628.9
		dw	 1.92e-9
		vm   26.5 -0.066   0  0 0 0 -9.7E-03 # Data in Duan et al., 2006, MC 98, 131. 1-100 oC, 1-700 atm.
	2 H2O = O2 + 4 H+ + 4 e-
		log_k	-86.08
		delta_h 134.79 kcal
		dw	 2.35e-9
		vm 35 # Pray et al., 1952, IEC 44. 1146
	2 H+ + 2 e- = H2
		log_k	-3.15
		delta_h -1.759 kcal
		dw	 5.13e-9
		vm 20 # Pray et al., 1952, IEC 44. 1146
	CO3-2 + 10 H+ + 8 e- = CH4 + 3 H2O
		log_k	41.071
		delta_h -61.039 kcal
		dw	 1.85e-9
		vm 33
	PHASES
	CO2(g)
		CO2 = CO2
		log_k	-1.468
		delta_h -4.776 kcal
		analytical_expression	108.3865	0.01985076	-6919.53	-40.45154	669365.0
		t_c  304.2 # critical T, K
		p_c   72.80 # critical P, atm
		omega 0.225 #  acentric factor
	O2(g)
		O2 = O2
		log_k   -2.8983
		analytical_expression -7.5001 7.8981e-003 0.0 0.0 2.0027e+005
		T_c  154.6 # critical T, K
		p_c   49.80 # critical P, atm
		omega 0.021 #  acentric factor
	H2(g)
		H2 = H2
		log_k	   -3.1050
		delta_h -4.184  kJ
		analytical_expression   -9.3114e+000    4.6473e-003   -4.9335e+001    1.4341e+000    1.2815e+005
		t_c  33.2 # critical T, K
		p_c   12.80 # critical P, atm
		omega 0.225 #  acentric factor
	CH4(g)
		CH4 = CH4
		log_k	   -2.8502
		analytical_expression -2.4027e+001 4.7146e-003 3.7227e+002 6.4264e+000 2.3362e+005
		T_c  190.6 # critical T, K
		p_c   45.40 # critical P, atm
		omega 0.008 #  acentric factor
	Mirabilite
		Na2SO4:10H2O  =  SO4-2 + 2 Na+ + 10 H2O
		log_k	   -1.214
		analytical_expression       -3862.234   -1.19856    93713.54    1577.756    0.
		vm  216.2
	H2O(g)
		H2O = H2O
		log_k  1.506
	 delta_h -44.03 kJ
		T_c  647.3 # critical T, K
		p_c  217.60 # critical P, atm
		omega 0.344 #  acentric factor
		analytical_expression   -16.5066 -2.0013E-3  2710.7  3.7646  0 2.24E-6
	SOLUTION 1
	SELECTED_OUTPUT
	 reset false
	 file co2.prn
	USER_PUNCH
	  1 sc$ = chr$(59)
	 10 for i = 1.1 to 520 step 20
	 20   punch 'SOLUTION 1' + sc$ + ' -temp 25' + sc$ + '-pressure ' + str$(i) + EOL$ + 'EQUILIBRIUM_PHASES' + sc$ + ' CO2(g) ' + str$(log10(i)) + EOL$ + 'END' + EOL$
	 30 next i
	END
-------------------------------------------
Beginning of initial solution calculations.
-------------------------------------------

Initial solution 1.	

WARNING: USER_PUNCH: Headings count doesn't match number of calls to PUNCH.

-----------------------------Solution composition------------------------------

	Elements           Molality       Moles

	Pure water     

----------------------------Description of solution----------------------------

                                       pH  =   7.000    
                                       pe  =   4.000    
       Specific Conductance (uS/cm, 25 oC) = 0
                          Density (g/cm3)  =   0.99709
                        Activity of water  =   1.000
                           Ionic strength  =   1.001e-07
                       Mass of water (kg)  =   1.000e+00
                 Total alkalinity (eq/kg)  =   1.082e-10
                    Total carbon (mol/kg)  =   0.000e+00
                       Total CO2 (mol/kg)  =   0.000e+00
                      Temperature (deg C)  =  25.00
                  Electrical balance (eq)  =  -1.082e-10
 Percent error, 100*(Cat-|An|)/(Cat+|An|)  =  -0.05
                               Iterations  =   0
                                  Total H  = 1.110124e+02
                                  Total O  = 5.550622e+01

----------------------------Distribution of species----------------------------

                                            Log       Log         Log     mole V
   Species          Molality    Activity  Molality  Activity     Gamma   cm3/mol

   OH-             1.002e-07   1.001e-07    -6.999    -6.999    -0.000     (0)  
   H+              1.001e-07   1.000e-07    -7.000    -7.000    -0.000      0.00
   H2O             5.551e+01   1.000e+00     1.744     0.000     0.000     18.07
H(0)          1.416e-25
   H2              7.079e-26   7.079e-26   -25.150   -25.150     0.000     20.00
O(0)          0.000e+00
   O2              0.000e+00   0.000e+00   -42.080   -42.080     0.000     35.00

------------------------------Saturation indices-------------------------------

	Phase               SI   log IAP   log K(298 K,   1 atm)

	H2(g)           -22.05    -25.15   -3.10  H2
	H2O(g)           -1.50      0.00    1.50  H2O
	O2(g)           -39.19    -42.08   -2.89  O2


------------------
End of simulation.
------------------

------------------------------------
Reading input data for simulation 2.
------------------------------------

	SELECTED_OUTPUT
	 selected_out false
	USER_GRAPH
	 -chart_title "Using: EQUILIBRIUM_PHASES"
	 -plot_csv_file co2_25_50_75.dat
	 -axis_titles "Pressure / atm" "CO2 / (mol/kgw)"
	 -axis_scale x_axis 0 500
	 -axis_scale y_axis 0 2
	 10 x = PR_P("CO2(g)")
	 20 graph_x x # tot("Na")
	 30 graph_y tot("C(4)")
	 -end
	SOLUTION 1
	 temp 25
	pressure   1.1000e+00
	EQUILIBRIUM_PHASES
	 CO2(g)   4.1393e-02
	END
-------------------------------------------
Beginning of initial solution calculations.
-------------------------------------------

Initial solution 1.	

-----------------------------Solution composition------------------------------

	Elements           Molality       Moles

	Pure water     

----------------------------Description of solution----------------------------

                                       pH  =   7.000    
                                       pe  =   4.000    
       Specific Conductance (uS/cm, 25 oC) = 0
                          Density (g/cm3)  =   0.99709
                        Activity of water  =   1.000
                           Ionic strength  =   1.001e-07
                       Mass of water (kg)  =   1.000e+00
                 Total alkalinity (eq/kg)  =   1.082e-10
                    Total carbon (mol/kg)  =   0.000e+00
                       Total CO2 (mol/kg)  =   0.000e+00
                      Temperature (deg C)  =  25.00
                           Pressure (atm)  =  1.10
                  Electrical balance (eq)  =  -1.082e-10
 Percent error, 100*(Cat-|An|)/(Cat+|An|)  =  -0.05
                               Iterations  =   0
                                  Total H  = 1.110124e+02
                                  Total O  = 5.550622e+01

----------------------------Distribution of species----------------------------

                                            Log       Log         Log     mole V
   Species          Molality    Activity  Molality  Activity     Gamma   cm3/mol

   OH-             1.002e-07   1.001e-07    -6.999    -6.999    -0.000     (0)  
   H+              1.001e-07   1.000e-07    -7.000    -7.000    -0.000      0.00
   H2O             5.551e+01   1.000e+00     1.744     0.000     0.000     18.07
H(0)          1.416e-25
   H2              7.079e-26   7.079e-26   -25.150   -25.150     0.000     20.00
O(0)          0.000e+00
   O2              0.000e+00   0.000e+00   -42.080   -42.080     0.000     35.00

------------------------------Saturation indices-------------------------------

	Phase               SI   log IAP   log K(298 K,   1 atm)

	H2(g)           -22.05    -25.15   -3.10  H2
	H2O(g)           -1.50      0.00    1.50  H2O
	O2(g)           -39.19    -42.08   -2.89  O2


-----------------------------------------
Beginning of batch-reaction calculations.
-----------------------------------------

Reaction step 1.

Using solution 1.	
Using pure phase assemblage 1.	

-------------------------------Phase assemblage--------------------------------

                                                      Moles in assemblage
Phase               SI  log IAP  log K(T, P)   Initial       Final       Delta

CO2(g)            0.04    -1.43     -1.47    1.000e+01   9.963e+00  -3.735e-02

-----------------------------Solution composition------------------------------

	Elements           Molality       Moles

	C                 3.735e-02   3.735e-02

----------------------------Description of solution----------------------------

                                       pH  =   3.891      Charge balance
                                       pe  =   1.888      Adjusted to redox equilibrium
       Specific Conductance (uS/cm, 25 oC) = 50
                          Density (g/cm3)  =   0.99710
                        Activity of water  =   0.999
                           Ionic strength  =   1.303e-04
                       Mass of water (kg)  =   1.000e+00
                 Total alkalinity (eq/kg)  =   1.082e-10
                       Total CO2 (mol/kg)  =   3.735e-02
                      Temperature (deg C)  =  25.00
                           Pressure (atm)  =  1.10
                  Electrical balance (eq)  =  -1.082e-10
 Percent error, 100*(Cat-|An|)/(Cat+|An|)  =  -0.00
                               Iterations  =  13
                                  Total H  = 1.110124e+02
                                  Total O  = 5.558091e+01

----------------------------Distribution of species----------------------------

                                            Log       Log         Log     mole V
   Species          Molality    Activity  Molality  Activity     Gamma   cm3/mol

   H+              1.303e-04   1.286e-04    -3.885    -3.891    -0.006      0.00
   OH-             7.881e-11   7.777e-11   -10.103   -10.109    -0.006     (0)  
   H2O             5.551e+01   9.994e-01     1.744    -0.000     0.000     18.07
C(-4)         5.423e-24
   CH4             5.423e-24   5.424e-24   -23.266   -23.266     0.000     33.00
C(4)          3.735e-02
   CO2             3.722e-02   3.722e-02    -1.429    -1.429     0.000     24.84
   HCO3-           1.303e-04   1.286e-04    -3.885    -3.891    -0.006     24.30
   CO3-2           4.942e-11   4.689e-11   -10.306   -10.329    -0.023     -3.74
H(0)          3.928e-15
   H2              1.964e-15   1.964e-15   -14.707   -14.707     0.000     20.00
O(0)          0.000e+00
   O2              0.000e+00   0.000e+00   -62.967   -62.967     0.000     35.00

------------------------------Saturation indices-------------------------------

	Phase               SI   log IAP   log K(298 K,   1 atm)

	CH4(g)          -20.42    -23.27   -2.84  CH4
	CO2(g)            0.04     -1.43   -1.47  CO2	 Pressure   1.1 atm, phi 0.994.
	H2(g)           -11.61    -14.71   -3.10  H2
	H2O(g)           -1.50     -0.00    1.50  H2O
	O2(g)           -60.07    -62.97   -2.89  O2


------------------
End of simulation.
------------------

------------------------------------
Reading input data for simulation 3.
------------------------------------

		SOLUTION 1
	 temp 25
	pressure   2.1100e+01
	EQUILIBRIUM_PHASES
	 CO2(g)   1.3243e+00
	END
-------------------------------------------
Beginning of initial solution calculations.
-------------------------------------------

Initial solution 1.	

-----------------------------Solution composition------------------------------

	Elements           Molality       Moles

	Pure water     

----------------------------Description of solution----------------------------

                                       pH  =   7.000    
                                       pe  =   4.000    
       Specific Conductance (uS/cm, 25 oC) = 0
                          Density (g/cm3)  =   0.99801
                        Activity of water  =   1.000
                           Ionic strength  =   1.001e-07
                       Mass of water (kg)  =   1.000e+00
                 Total alkalinity (eq/kg)  =   1.082e-10
                    Total carbon (mol/kg)  =   0.000e+00
                       Total CO2 (mol/kg)  =   0.000e+00
                      Temperature (deg C)  =  25.00
                           Pressure (atm)  = 21.10
                  Electrical balance (eq)  =  -1.082e-10
 Percent error, 100*(Cat-|An|)/(Cat+|An|)  =  -0.05
                               Iterations  =   0
                                  Total H  = 1.110124e+02
                                  Total O  = 5.550622e+01

----------------------------Distribution of species----------------------------

                                            Log       Log         Log     mole V
   Species          Molality    Activity  Molality  Activity     Gamma   cm3/mol

   OH-             1.002e-07   1.001e-07    -6.999    -6.999    -0.000     (0)  
   H+              1.001e-07   1.000e-07    -7.000    -7.000    -0.000      0.00
   H2O             5.551e+01   1.000e+00     1.744     0.000     0.000     18.05
H(0)          1.393e-25
   H2              6.964e-26   6.964e-26   -25.157   -25.157     0.000     20.00
O(0)          0.000e+00
   O2              0.000e+00   0.000e+00   -42.080   -42.080     0.000     35.00

------------------------------Saturation indices-------------------------------

	Phase               SI   log IAP   log K(298 K,  21 atm)

	H2(g)           -22.06    -25.16   -3.10  H2
	H2O(g)           -1.50      0.00    1.50  H2O
	O2(g)           -39.17    -42.08   -2.91  O2


-----------------------------------------
Beginning of batch-reaction calculations.
-----------------------------------------

Reaction step 1.

Using solution 1.	
Using pure phase assemblage 1.	

-------------------------------Phase assemblage--------------------------------

                                                      Moles in assemblage
Phase               SI  log IAP  log K(T, P)   Initial       Final       Delta

CO2(g)            1.26    -0.20     -1.46    1.000e+01   9.376e+00  -6.244e-01

-----------------------------Solution composition------------------------------

	Elements           Molality       Moles

	C                 6.244e-01   6.244e-01

----------------------------Description of solution----------------------------

                                       pH  =   3.277      Charge balance
                                       pe  =   2.485      Adjusted to redox equilibrium
       Specific Conductance (uS/cm, 25 oC) = 210
                          Density (g/cm3)  =   0.99803
                        Activity of water  =   0.989
                           Ionic strength  =   5.418e-04
                       Mass of water (kg)  =   1.000e+00
                 Total alkalinity (eq/kg)  =   1.082e-10
                       Total CO2 (mol/kg)  =   6.244e-01
                      Temperature (deg C)  =  25.00
                           Pressure (atm)  = 21.10
                  Electrical balance (eq)  =  -1.082e-10
 Percent error, 100*(Cat-|An|)/(Cat+|An|)  =  -0.00
                               Iterations  =  14
                                  Total H  = 1.110124e+02
                                  Total O  = 5.675502e+01

----------------------------Distribution of species----------------------------

                                            Log       Log         Log     mole V
   Species          Molality    Activity  Molality  Activity     Gamma   cm3/mol

   H+              5.418e-04   5.281e-04    -3.266    -3.277    -0.011      0.00
   OH-             1.926e-11   1.875e-11   -10.715   -10.727    -0.012     (0)  
   H2O             5.551e+01   9.894e-01     1.744    -0.005     0.000     18.05
C(-4)         1.213e-22
   CH4             1.213e-22   1.213e-22   -21.916   -21.916     0.000     33.00
C(4)          6.244e-01
   CO2             6.239e-01   6.239e-01    -0.205    -0.205     0.000     24.65
   HCO3-           5.418e-04   5.278e-04    -3.266    -3.278    -0.011     24.31
   CO3-2           5.326e-11   4.796e-11   -10.274   -10.319    -0.046     -3.69
H(0)          4.169e-15
   H2              2.085e-15   2.085e-15   -14.681   -14.681     0.000     20.00
O(0)          0.000e+00
   O2              0.000e+00   0.000e+00   -63.041   -63.041     0.000     35.00

------------------------------Saturation indices-------------------------------

	Phase               SI   log IAP   log K(298 K,  21 atm)

	CH4(g)          -19.09    -21.92   -2.82  CH4
	CO2(g)            1.26     -0.20   -1.46  CO2	 Pressure  21.1 atm, phi 0.886.
	H2(g)           -11.58    -14.68   -3.10  H2
	H2O(g)           -1.50     -0.00    1.50  H2O
	O2(g)           -60.14    -63.04   -2.91  O2


------------------
End of simulation.
------------------

------------------------------------
Reading input data for simulation 4.
------------------------------------

		SOLUTION 1
	 temp 25
	pressure   4.1100e+01
	EQUILIBRIUM_PHASES
	 CO2(g)   1.6138e+00
	END
-------------------------------------------
Beginning of initial solution calculations.
-------------------------------------------

Initial solution 1.	

-----------------------------Solution composition------------------------------

	Elements           Molality       Moles

	Pure water     

----------------------------Description of solution----------------------------

                                       pH  =   7.000    
                                       pe  =   4.000    
       Specific Conductance (uS/cm, 25 oC) = 0
                          Density (g/cm3)  =   0.99893
                        Activity of water  =   1.000
                           Ionic strength  =   1.001e-07
                       Mass of water (kg)  =   1.000e+00
                 Total alkalinity (eq/kg)  =   1.082e-10
                    Total carbon (mol/kg)  =   0.000e+00
                       Total CO2 (mol/kg)  =   0.000e+00
                      Temperature (deg C)  =  25.00
                           Pressure (atm)  = 41.10
                  Electrical balance (eq)  =  -1.082e-10
 Percent error, 100*(Cat-|An|)/(Cat+|An|)  =  -0.05
                               Iterations  =   0
                                  Total H  = 1.110124e+02
                                  Total O  = 5.550622e+01

----------------------------Distribution of species----------------------------

                                            Log       Log         Log     mole V
   Species          Molality    Activity  Molality  Activity     Gamma   cm3/mol

   OH-             1.002e-07   1.001e-07    -6.999    -6.999    -0.000     (0)  
   H+              1.001e-07   1.000e-07    -7.000    -7.000    -0.000      0.00
   H2O             5.551e+01   1.000e+00     1.744     0.000     0.000     18.04
H(0)          1.370e-25
   H2              6.851e-26   6.851e-26   -25.164   -25.164     0.000     20.00
O(0)          0.000e+00
   O2              0.000e+00   0.000e+00   -42.079   -42.079     0.000     35.00

------------------------------Saturation indices-------------------------------

	Phase               SI   log IAP   log K(298 K,  41 atm)

	H2(g)           -22.06    -25.16   -3.10  H2
	H2O(g)           -1.49      0.00    1.49  H2O
	O2(g)           -39.16    -42.08   -2.92  O2


-----------------------------------------
Beginning of batch-reaction calculations.
-----------------------------------------

Reaction step 1.

Using solution 1.	
Using pure phase assemblage 1.	

-------------------------------Phase assemblage--------------------------------

                                                      Moles in assemblage
Phase               SI  log IAP  log K(T, P)   Initial       Final       Delta

CO2(g)            1.47     0.02     -1.45    1.000e+01   8.947e+00  -1.053e+00

-----------------------------Solution composition------------------------------

	Elements           Molality       Moles

	C                 1.053e+00   1.053e+00

----------------------------Description of solution----------------------------

                                       pH  =   3.162      Charge balance
                                       pe  =   2.583      Adjusted to redox equilibrium
       Specific Conductance (uS/cm, 25 oC) = 274
                          Density (g/cm3)  =   0.99896
                        Activity of water  =   0.982
                           Ionic strength  =   7.088e-04
                       Mass of water (kg)  =   1.000e+00
                 Total alkalinity (eq/kg)  =   1.081e-10
                       Total CO2 (mol/kg)  =   1.053e+00
                      Temperature (deg C)  =  25.00
                           Pressure (atm)  = 41.10
                  Electrical balance (eq)  =  -1.081e-10
 Percent error, 100*(Cat-|An|)/(Cat+|An|)  =  -0.00
                               Iterations  =  14
                                  Total H  = 1.110124e+02
                                  Total O  = 5.761261e+01

----------------------------Distribution of species----------------------------

                                            Log       Log         Log     mole V
   Species          Molality    Activity  Molality  Activity     Gamma   cm3/mol

   H+              7.088e-04   6.886e-04    -3.149    -3.162    -0.013      0.00
   OH-             1.472e-11   1.428e-11   -10.832   -10.845    -0.013     (0)  
   H2O             5.551e+01   9.821e-01     1.744    -0.008     0.000     18.04
C(-4)         2.732e-22
   CH4             2.732e-22   2.733e-22   -21.564   -21.563     0.000     33.00
C(4)          1.053e+00
   CO2             1.053e+00   1.053e+00     0.022     0.022     0.000     24.45
   HCO3-           7.088e-04   6.880e-04    -3.149    -3.162    -0.013     24.31
   CO3-2           5.527e-11   4.906e-11   -10.258   -10.309    -0.052     -3.68
H(0)          4.433e-15
   H2              2.217e-15   2.217e-15   -14.654   -14.654     0.000     20.00
O(0)          0.000e+00
   O2              0.000e+00   0.000e+00   -63.115   -63.115     0.000     35.00

------------------------------Saturation indices-------------------------------

	Phase               SI   log IAP   log K(298 K,  41 atm)

	CH4(g)          -18.76    -21.56   -2.80  CH4
	CO2(g)            1.47      0.02   -1.45  CO2	 Pressure  41.1 atm, phi 0.783.
	H2(g)           -11.55    -14.65   -3.10  H2
	H2O(g)           -1.50     -0.01    1.49  H2O
	O2(g)           -60.20    -63.11   -2.92  O2


------------------
End of simulation.
------------------

------------------------------------
Reading input data for simulation 5.
------------------------------------

		SOLUTION 1
	 temp 25
	pressure   6.1100e+01
	EQUILIBRIUM_PHASES
	 CO2(g)   1.7860e+00
	END
-------------------------------------------
Beginning of initial solution calculations.
-------------------------------------------

Initial solution 1.	

-----------------------------Solution composition------------------------------

	Elements           Molality       Moles

	Pure water     

----------------------------Description of solution----------------------------

                                       pH  =   7.000    
                                       pe  =   4.000    
       Specific Conductance (uS/cm, 25 oC) = 0
                          Density (g/cm3)  =   0.99985
                        Activity of water  =   1.000
                           Ionic strength  =   1.001e-07
                       Mass of water (kg)  =   1.000e+00
                 Total alkalinity (eq/kg)  =   1.082e-10
                    Total carbon (mol/kg)  =   0.000e+00
                       Total CO2 (mol/kg)  =   0.000e+00
                      Temperature (deg C)  =  25.00
                           Pressure (atm)  = 61.10
                  Electrical balance (eq)  =  -1.082e-10
 Percent error, 100*(Cat-|An|)/(Cat+|An|)  =  -0.05
                               Iterations  =   0
                                  Total H  = 1.110124e+02
                                  Total O  = 5.550622e+01

----------------------------Distribution of species----------------------------

                                            Log       Log         Log     mole V
   Species          Molality    Activity  Molality  Activity     Gamma   cm3/mol

   OH-             1.002e-07   1.001e-07    -6.999    -6.999    -0.000     (0)  
   H+              1.001e-07   1.000e-07    -7.000    -7.000    -0.000      0.00
   H2O             5.551e+01   1.000e+00     1.744     0.000     0.000     18.02
H(0)          1.348e-25
   H2              6.740e-26   6.740e-26   -25.171   -25.171     0.000     20.00
O(0)          0.000e+00
   O2              0.000e+00   0.000e+00   -42.079   -42.079     0.000     35.00

------------------------------Saturation indices-------------------------------

	Phase               SI   log IAP   log K(298 K,  61 atm)

	H2(g)           -22.07    -25.17   -3.10  H2
	H2O(g)           -1.48      0.00    1.48  H2O
	O2(g)           -39.15    -42.08   -2.93  O2


-----------------------------------------
Beginning of batch-reaction calculations.
-----------------------------------------

Reaction step 1.

Using solution 1.	
Using pure phase assemblage 1.	

-------------------------------Phase assemblage--------------------------------

                                                      Moles in assemblage
Phase               SI  log IAP  log K(T, P)   Initial       Final       Delta

CO2(g)            1.57     0.12     -1.44    1.000e+01   8.667e+00  -1.333e+00

-----------------------------Solution composition------------------------------

	Elements           Molality       Moles

	C                 1.333e+00   1.333e+00

----------------------------Description of solution----------------------------

                                       pH  =   3.109      Charge balance
                                       pe  =   2.660      Adjusted to redox equilibrium
       Specific Conductance (uS/cm, 25 oC) = 310
                          Density (g/cm3)  =   0.99988
                        Activity of water  =   0.977
                           Ionic strength  =   8.027e-04
                       Mass of water (kg)  =   1.000e+00
                 Total alkalinity (eq/kg)  =   1.081e-10
                       Total CO2 (mol/kg)  =   1.333e+00
                      Temperature (deg C)  =  25.00
                           Pressure (atm)  = 61.10
                  Electrical balance (eq)  =  -1.081e-10
 Percent error, 100*(Cat-|An|)/(Cat+|An|)  =  -0.00
                               Iterations  =  14
                                  Total H  = 1.110124e+02
                                  Total O  = 5.817250e+01

----------------------------Distribution of species----------------------------

                                            Log       Log         Log     mole V
   Species          Molality    Activity  Molality  Activity     Gamma   cm3/mol

   H+              8.027e-04   7.784e-04    -3.095    -3.109    -0.013      0.00
   OH-             1.298e-11   1.257e-11   -10.887   -10.901    -0.014     (0)  
   H2O             5.551e+01   9.773e-01     1.744    -0.010     0.000     18.02
C(-4)         2.187e-22
   CH4             2.187e-22   2.187e-22   -21.660   -21.660     0.000     33.00
C(4)          1.333e+00
   CO2             1.332e+00   1.333e+00     0.125     0.125     0.000     24.26
   HCO3-           8.027e-04   7.777e-04    -3.095    -3.109    -0.014     24.32
   CO3-2           5.696e-11   5.019e-11   -10.244   -10.299    -0.055     -3.67
H(0)          3.916e-15
   H2              1.958e-15   1.958e-15   -14.708   -14.708     0.000     20.00
O(0)          0.000e+00
   O2              0.000e+00   0.000e+00   -63.025   -63.025     0.000     35.00

------------------------------Saturation indices-------------------------------

	Phase               SI   log IAP   log K(298 K,  61 atm)

	CH4(g)          -18.88    -21.66   -2.78  CH4
	CO2(g)            1.57      0.12   -1.44  CO2	 Pressure  61.1 atm, phi 0.680.
	H2(g)           -11.61    -14.71   -3.10  H2
	H2O(g)           -1.49     -0.01    1.48  H2O
	O2(g)           -60.09    -63.03   -2.93  O2


------------------
End of simulation.
------------------

------------------------------------
Reading input data for simulation 6.
------------------------------------

		SOLUTION 1
	 temp 25
	pressure   8.1100e+01
	EQUILIBRIUM_PHASES
	 CO2(g)   1.9090e+00
	END
-------------------------------------------
Beginning of initial solution calculations.
-------------------------------------------

Initial solution 1.	

-----------------------------Solution composition------------------------------

	Elements           Molality       Moles

	Pure water     

----------------------------Description of solution----------------------------

                                       pH  =   7.000    
                                       pe  =   4.000    
       Specific Conductance (uS/cm, 25 oC) = 0
                          Density (g/cm3)  =   1.00077
                        Activity of water  =   1.000
                           Ionic strength  =   1.001e-07
                       Mass of water (kg)  =   1.000e+00
                 Total alkalinity (eq/kg)  =   1.082e-10
                    Total carbon (mol/kg)  =   0.000e+00
                       Total CO2 (mol/kg)  =   0.000e+00
                      Temperature (deg C)  =  25.00
                           Pressure (atm)  = 81.10
                  Electrical balance (eq)  =  -1.082e-10
 Percent error, 100*(Cat-|An|)/(Cat+|An|)  =  -0.05
                               Iterations  =   0
                                  Total H  = 1.110124e+02
                                  Total O  = 5.550622e+01

----------------------------Distribution of species----------------------------

                                            Log       Log         Log     mole V
   Species          Molality    Activity  Molality  Activity     Gamma   cm3/mol

   OH-             1.002e-07   1.001e-07    -6.999    -6.999    -0.000     (0)  
   H+              1.001e-07   1.000e-07    -7.000    -7.000    -0.000      0.00
   H2O             5.551e+01   1.000e+00     1.744     0.000     0.000     18.00
H(0)          1.326e-25
   H2              6.631e-26   6.631e-26   -25.178   -25.178     0.000     20.00
O(0)          0.000e+00
   O2              0.000e+00   0.000e+00   -42.079   -42.079     0.000     35.00

------------------------------Saturation indices-------------------------------

	Phase               SI   log IAP   log K(298 K,  81 atm)

	H2(g)           -22.08    -25.18   -3.10  H2
	H2O(g)           -1.48      0.00    1.48  H2O
	O2(g)           -39.14    -42.08   -2.94  O2


-----------------------------------------
Beginning of batch-reaction calculations.
-----------------------------------------

Reaction step 1.

Using solution 1.	
Using pure phase assemblage 1.	

-------------------------------Phase assemblage--------------------------------

                                                      Moles in assemblage
Phase               SI  log IAP  log K(T, P)   Initial       Final       Delta

CO2(g)            1.58     0.14     -1.44    1.000e+01   8.604e+00  -1.396e+00

-----------------------------Solution composition------------------------------

	Elements           Molality       Moles

	C                 1.396e+00   1.396e+00

----------------------------Description of solution----------------------------

                                       pH  =   3.096      Charge balance
                                       pe  =   2.703      Adjusted to redox equilibrium
       Specific Conductance (uS/cm, 25 oC) = 319
                          Density (g/cm3)  =   1.00080
                        Activity of water  =   0.976
                           Ionic strength  =   8.271e-04
                       Mass of water (kg)  =   1.000e+00
                 Total alkalinity (eq/kg)  =   1.081e-10
                       Total CO2 (mol/kg)  =   1.396e+00
                      Temperature (deg C)  =  25.00
                           Pressure (atm)  = 81.10
                  Electrical balance (eq)  =  -1.081e-10
 Percent error, 100*(Cat-|An|)/(Cat+|An|)  =  -0.00
                               Iterations  =  14
                                  Total H  = 1.110124e+02
                                  Total O  = 5.829834e+01

----------------------------Distribution of species----------------------------

                                            Log       Log         Log     mole V
   Species          Molality    Activity  Molality  Activity     Gamma   cm3/mol

   H+              8.271e-04   8.018e-04    -3.082    -3.096    -0.013      0.00
   OH-             1.259e-11   1.219e-11   -10.900   -10.914    -0.014     (0)  
   H2O             5.551e+01   9.763e-01     1.744    -0.010     0.000     18.00
C(-4)         1.261e-22
   CH4             1.261e-22   1.262e-22   -21.899   -21.899     0.000     33.00
C(4)          1.396e+00
   CO2             1.395e+00   1.396e+00     0.145     0.145     0.000     24.06
   HCO3-           8.271e-04   8.010e-04    -3.082    -3.096    -0.014     24.32
   CO3-2           5.838e-11   5.135e-11   -10.234   -10.289    -0.056     -3.67
H(0)          3.348e-15
   H2              1.674e-15   1.674e-15   -14.776   -14.776     0.000     20.00
O(0)          0.000e+00
   O2              0.000e+00   0.000e+00   -62.904   -62.904     0.000     35.00

------------------------------Saturation indices-------------------------------

	Phase               SI   log IAP   log K(298 K,  81 atm)

	CH4(g)          -19.14    -21.90   -2.76  CH4
	CO2(g)            1.58      0.14   -1.44  CO2	 Pressure  81.1 atm, phi 0.547.
	H2(g)           -11.68    -14.78   -3.10  H2
	H2O(g)           -1.49     -0.01    1.48  H2O
	O2(g)           -59.96    -62.90   -2.94  O2


------------------
End of simulation.
------------------

------------------------------------
Reading input data for simulation 7.
------------------------------------

		SOLUTION 1
	 temp 25
	pressure   1.0110e+02
	EQUILIBRIUM_PHASES
	 CO2(g)   2.0048e+00
	END
-------------------------------------------
Beginning of initial solution calculations.
-------------------------------------------

Initial solution 1.	

-----------------------------Solution composition------------------------------

	Elements           Molality       Moles

	Pure water     

----------------------------Description of solution----------------------------

                                       pH  =   7.000    
                                       pe  =   4.000    
       Specific Conductance (uS/cm, 25 oC) = 0
                          Density (g/cm3)  =   1.00169
                        Activity of water  =   1.000
                           Ionic strength  =   1.001e-07
                       Mass of water (kg)  =   1.000e+00
                 Total alkalinity (eq/kg)  =   1.082e-10
                    Total carbon (mol/kg)  =   0.000e+00
                       Total CO2 (mol/kg)  =   0.000e+00
                      Temperature (deg C)  =  25.00
                           Pressure (atm)  = 101.10
                  Electrical balance (eq)  =  -1.082e-10
 Percent error, 100*(Cat-|An|)/(Cat+|An|)  =  -0.05
                               Iterations  =   0
                                  Total H  = 1.110124e+02
                                  Total O  = 5.550622e+01

----------------------------Distribution of species----------------------------

                                            Log       Log         Log     mole V
   Species          Molality    Activity  Molality  Activity     Gamma   cm3/mol

   OH-             1.002e-07   1.001e-07    -6.999    -6.999    -0.000     (0)  
   H+              1.001e-07   1.000e-07    -7.000    -7.000    -0.000      0.00
   H2O             5.551e+01   1.000e+00     1.744     0.000     0.000     17.99
H(0)          1.305e-25
   H2              6.523e-26   6.523e-26   -25.186   -25.186     0.000     20.00
O(0)          0.000e+00
   O2              0.000e+00   0.000e+00   -42.078   -42.078     0.000     35.00

------------------------------Saturation indices-------------------------------

	Phase               SI   log IAP   log K(298 K, 101 atm)

	H2(g)           -22.08    -25.19   -3.10  H2
	H2O(g)           -1.47      0.00    1.47  H2O
	O2(g)           -39.12    -42.08   -2.96  O2


-----------------------------------------
Beginning of batch-reaction calculations.
-----------------------------------------

Reaction step 1.

Using solution 1.	
Using pure phase assemblage 1.	

-------------------------------Phase assemblage--------------------------------

                                                      Moles in assemblage
Phase               SI  log IAP  log K(T, P)   Initial       Final       Delta

CO2(g)            1.59     0.16     -1.43    1.000e+01   8.564e+00  -1.436e+00

-----------------------------Solution composition------------------------------

	Elements           Molality       Moles

	C                 1.436e+00   1.436e+00

----------------------------Description of solution----------------------------

                                       pH  =   3.087      Charge balance
                                       pe  =   2.671      Adjusted to redox equilibrium
       Specific Conductance (uS/cm, 25 oC) = 326
                          Density (g/cm3)  =   1.00172
                        Activity of water  =   0.976
                           Ionic strength  =   8.447e-04
                       Mass of water (kg)  =   1.000e+00
                 Total alkalinity (eq/kg)  =   1.081e-10
                       Total CO2 (mol/kg)  =   1.436e+00
                      Temperature (deg C)  =  25.00
                           Pressure (atm)  = 101.10
                  Electrical balance (eq)  =  -1.081e-10
 Percent error, 100*(Cat-|An|)/(Cat+|An|)  =  -0.00
                               Iterations  =  15
                                  Total H  = 1.110124e+02
                                  Total O  = 5.837912e+01

----------------------------Distribution of species----------------------------

                                            Log       Log         Log     mole V
   Species          Molality    Activity  Molality  Activity     Gamma   cm3/mol

   H+              8.447e-04   8.186e-04    -3.073    -3.087    -0.014      0.00
   OH-             1.233e-11   1.193e-11   -10.909   -10.923    -0.014     (0)  
   H2O             5.551e+01   9.756e-01     1.744    -0.011     0.000     17.99
C(-4)         2.669e-22
   CH4             2.669e-22   2.670e-22   -21.574   -21.574     0.000     33.00
C(4)          1.436e+00
   CO2             1.436e+00   1.436e+00     0.157     0.157     0.000     23.87
   HCO3-           8.447e-04   8.177e-04    -3.073    -3.087    -0.014     24.32
   CO3-2           5.981e-11   5.253e-11   -10.223   -10.280    -0.056     -3.67
H(0)          3.980e-15
   H2              1.990e-15   1.990e-15   -14.701   -14.701     0.000     20.00
O(0)          0.000e+00
   O2              0.000e+00   0.000e+00   -63.069   -63.069     0.000     35.00

------------------------------Saturation indices-------------------------------

	Phase               SI   log IAP   log K(298 K, 101 atm)

	CH4(g)          -18.83    -21.57   -2.74  CH4
	CO2(g)            1.59      0.16   -1.43  CO2	 Pressure 101.1 atm, phi 0.460.
	H2(g)           -11.60    -14.70   -3.10  H2
	H2O(g)           -1.48     -0.01    1.47  H2O
	O2(g)           -60.11    -63.07   -2.96  O2


------------------
End of simulation.
------------------

------------------------------------
Reading input data for simulation 8.
------------------------------------

		SOLUTION 1
	 temp 25
	pressure   1.2110e+02
	EQUILIBRIUM_PHASES
	 CO2(g)   2.0831e+00
	END
-------------------------------------------
Beginning of initial solution calculations.
-------------------------------------------

Initial solution 1.	

-----------------------------Solution composition------------------------------

	Elements           Molality       Moles

	Pure water     

----------------------------Description of solution----------------------------

                                       pH  =   7.000    
                                       pe  =   4.000    
       Specific Conductance (uS/cm, 25 oC) = 0
                          Density (g/cm3)  =   1.00261
                        Activity of water  =   1.000
                           Ionic strength  =   1.001e-07
                       Mass of water (kg)  =   1.000e+00
                 Total alkalinity (eq/kg)  =   1.082e-10
                    Total carbon (mol/kg)  =   0.000e+00
                       Total CO2 (mol/kg)  =   0.000e+00
                      Temperature (deg C)  =  25.00
                           Pressure (atm)  = 121.10
                  Electrical balance (eq)  =  -1.082e-10
 Percent error, 100*(Cat-|An|)/(Cat+|An|)  =  -0.05
                               Iterations  =   0
                                  Total H  = 1.110124e+02
                                  Total O  = 5.550622e+01

----------------------------Distribution of species----------------------------

                                            Log       Log         Log     mole V
   Species          Molality    Activity  Molality  Activity     Gamma   cm3/mol

   OH-             1.002e-07   1.001e-07    -6.999    -6.999    -0.000     (0)  
   H+              1.001e-07   1.000e-07    -7.000    -7.000    -0.000      0.00
   H2O             5.551e+01   1.000e+00     1.744     0.000     0.000     17.97
H(0)          1.283e-25
   H2              6.417e-26   6.417e-26   -25.193   -25.193     0.000     20.00
O(0)          0.000e+00
   O2              0.000e+00   0.000e+00   -42.078   -42.078     0.000     35.00

------------------------------Saturation indices-------------------------------

	Phase               SI   log IAP   log K(298 K, 121 atm)

	H2(g)           -22.09    -25.19   -3.10  H2
	H2O(g)           -1.46      0.00    1.46  H2O
	O2(g)           -39.11    -42.08   -2.97  O2


-----------------------------------------
Beginning of batch-reaction calculations.
-----------------------------------------

Reaction step 1.

Using solution 1.	
Using pure phase assemblage 1.	

-------------------------------Phase assemblage--------------------------------

                                                      Moles in assemblage
Phase               SI  log IAP  log K(T, P)   Initial       Final       Delta

CO2(g)            1.59     0.17     -1.42    1.000e+01   8.526e+00  -1.474e+00

-----------------------------Solution composition------------------------------

	Elements           Molality       Moles

	C                 1.474e+00   1.474e+00

----------------------------Description of solution----------------------------

                                       pH  =   3.079      Charge balance
                                       pe  =   2.659      Adjusted to redox equilibrium
       Specific Conductance (uS/cm, 25 oC) = 332
                          Density (g/cm3)  =   1.00265
                        Activity of water  =   0.975
                           Ionic strength  =   8.614e-04
                       Mass of water (kg)  =   1.000e+00
                 Total alkalinity (eq/kg)  =   1.081e-10
                       Total CO2 (mol/kg)  =   1.474e+00
                      Temperature (deg C)  =  25.00
                           Pressure (atm)  = 121.10
                  Electrical balance (eq)  =  -1.081e-10
 Percent error, 100*(Cat-|An|)/(Cat+|An|)  =  -0.00
                               Iterations  =  14
                                  Total H  = 1.110124e+02
                                  Total O  = 5.845467e+01

----------------------------Distribution of species----------------------------

                                            Log       Log         Log     mole V
   Species          Molality    Activity  Molality  Activity     Gamma   cm3/mol

   H+              8.614e-04   8.345e-04    -3.065    -3.079    -0.014      0.00
   OH-             1.209e-11   1.169e-11   -10.918   -10.932    -0.014     (0)  
   H2O             5.551e+01   9.749e-01     1.744    -0.011     0.000     17.97
C(-4)         3.867e-22
   CH4             3.867e-22   3.867e-22   -21.413   -21.413     0.000     33.00
C(4)          1.474e+00
   CO2             1.473e+00   1.474e+00     0.168     0.168     0.000     23.68
   HCO3-           8.614e-04   8.337e-04    -3.065    -3.079    -0.014     24.32
   CO3-2           6.126e-11   5.375e-11   -10.213   -10.270    -0.057     -3.67
H(0)          4.306e-15
   H2              2.153e-15   2.154e-15   -14.667   -14.667     0.000     20.00
O(0)          0.000e+00
   O2              0.000e+00   0.000e+00   -63.152   -63.152     0.000     35.00

------------------------------Saturation indices-------------------------------

	Phase               SI   log IAP   log K(298 K, 121 atm)

	CH4(g)          -18.69    -21.41   -2.72  CH4
	CO2(g)            1.59      0.17   -1.42  CO2	 Pressure 121.1 atm, phi 0.402.
	H2(g)           -11.57    -14.67   -3.10  H2
	H2O(g)           -1.48     -0.01    1.46  H2O
	O2(g)           -60.18    -63.15   -2.97  O2


------------------
End of simulation.
------------------

------------------------------------
Reading input data for simulation 9.
------------------------------------

		SOLUTION 1
	 temp 25
	pressure   1.4110e+02
	EQUILIBRIUM_PHASES
	 CO2(g)   2.1495e+00
	END
-------------------------------------------
Beginning of initial solution calculations.
-------------------------------------------

Initial solution 1.	

-----------------------------Solution composition------------------------------

	Elements           Molality       Moles

	Pure water     

----------------------------Description of solution----------------------------

                                       pH  =   7.000    
                                       pe  =   4.000    
       Specific Conductance (uS/cm, 25 oC) = 0
                          Density (g/cm3)  =   1.00353
                        Activity of water  =   1.000
                           Ionic strength  =   1.001e-07
                       Mass of water (kg)  =   1.000e+00
                 Total alkalinity (eq/kg)  =   1.082e-10
                    Total carbon (mol/kg)  =   0.000e+00
                       Total CO2 (mol/kg)  =   0.000e+00
                      Temperature (deg C)  =  25.00
                           Pressure (atm)  = 141.10
                  Electrical balance (eq)  =  -1.082e-10
 Percent error, 100*(Cat-|An|)/(Cat+|An|)  =  -0.05
                               Iterations  =   0
                                  Total H  = 1.110124e+02
                                  Total O  = 5.550622e+01

----------------------------Distribution of species----------------------------

                                            Log       Log         Log     mole V
   Species          Molality    Activity  Molality  Activity     Gamma   cm3/mol

   OH-             1.002e-07   1.001e-07    -6.999    -6.999    -0.000     (0)  
   H+              1.001e-07   1.000e-07    -7.000    -7.000    -0.000      0.00
   H2O             5.551e+01   1.000e+00     1.744     0.000     0.000     17.95
H(0)          1.263e-25
   H2              6.313e-26   6.313e-26   -25.200   -25.200     0.000     20.00
O(0)          0.000e+00
   O2              0.000e+00   0.000e+00   -42.078   -42.078     0.000     35.00

------------------------------Saturation indices-------------------------------

	Phase               SI   log IAP   log K(298 K, 141 atm)

	H2(g)           -22.10    -25.20   -3.10  H2
	H2O(g)           -1.46      0.00    1.46  H2O
	O2(g)           -39.10    -42.08   -2.98  O2


-----------------------------------------
Beginning of batch-reaction calculations.
-----------------------------------------

Reaction step 1.

Using solution 1.	
Using pure phase assemblage 1.	

-------------------------------Phase assemblage--------------------------------

                                                      Moles in assemblage
Phase               SI  log IAP  log K(T, P)   Initial       Final       Delta

CO2(g)            1.59     0.18     -1.41    1.000e+01   8.489e+00  -1.511e+00

-----------------------------Solution composition------------------------------

	Elements           Molality       Moles

	C                 1.511e+00   1.511e+00

----------------------------Description of solution----------------------------

                                       pH  =   3.071      Charge balance
                                       pe  =   2.750      Adjusted to redox equilibrium
       Specific Conductance (uS/cm, 25 oC) = 339
                          Density (g/cm3)  =   1.00357
                        Activity of water  =   0.974
                           Ionic strength  =   8.776e-04
                       Mass of water (kg)  =   1.000e+00
                 Total alkalinity (eq/kg)  =   1.081e-10
                       Total CO2 (mol/kg)  =   1.511e+00
                      Temperature (deg C)  =  25.00
                           Pressure (atm)  = 141.10
                  Electrical balance (eq)  =  -1.081e-10
 Percent error, 100*(Cat-|An|)/(Cat+|An|)  =  -0.00
                               Iterations  =  14
                                  Total H  = 1.110124e+02
                                  Total O  = 5.852769e+01

----------------------------Distribution of species----------------------------

                                            Log       Log         Log     mole V
   Species          Molality    Activity  Molality  Activity     Gamma   cm3/mol

   H+              8.776e-04   8.500e-04    -3.057    -3.071    -0.014      0.00
   OH-             1.187e-11   1.147e-11   -10.926   -10.940    -0.015     (0)  
   H2O             5.551e+01   9.743e-01     1.744    -0.011     0.000     17.95
C(-4)         8.173e-23
   CH4             8.173e-23   8.175e-23   -22.088   -22.088     0.000     33.00
C(4)          1.511e+00
   CO2             1.510e+00   1.510e+00     0.179     0.179     0.000     23.48
   HCO3-           8.776e-04   8.491e-04    -3.057    -3.071    -0.014     24.32
   CO3-2           6.275e-11   5.499e-11   -10.202   -10.260    -0.057     -3.67
H(0)          2.881e-15
   H2              1.441e-15   1.441e-15   -14.841   -14.841     0.000     20.00
O(0)          0.000e+00
   O2              0.000e+00   0.000e+00   -62.817   -62.817     0.000     35.00

------------------------------Saturation indices-------------------------------

	Phase               SI   log IAP   log K(298 K, 141 atm)

	CH4(g)          -19.39    -22.09   -2.70  CH4
	CO2(g)            1.59      0.18   -1.41  CO2	 Pressure 141.1 atm, phi 0.360.
	H2(g)           -11.74    -14.84   -3.10  H2
	H2O(g)           -1.47     -0.01    1.46  H2O
	O2(g)           -59.84    -62.82   -2.98  O2


------------------
End of simulation.
------------------

-------------------------------------
Reading input data for simulation 10.
-------------------------------------

		SOLUTION 1
	 temp 25
	pressure   1.6110e+02
	EQUILIBRIUM_PHASES
	 CO2(g)   2.2071e+00
	END
-------------------------------------------
Beginning of initial solution calculations.
-------------------------------------------

Initial solution 1.	

-----------------------------Solution composition------------------------------

	Elements           Molality       Moles

	Pure water     

----------------------------Description of solution----------------------------

                                       pH  =   7.000    
                                       pe  =   4.000    
       Specific Conductance (uS/cm, 25 oC) = 0
                          Density (g/cm3)  =   1.00445
                        Activity of water  =   1.000
                           Ionic strength  =   1.001e-07
                       Mass of water (kg)  =   1.000e+00
                 Total alkalinity (eq/kg)  =   1.082e-10
                    Total carbon (mol/kg)  =   0.000e+00
                       Total CO2 (mol/kg)  =   0.000e+00
                      Temperature (deg C)  =  25.00
                           Pressure (atm)  = 161.10
                  Electrical balance (eq)  =  -1.082e-10
 Percent error, 100*(Cat-|An|)/(Cat+|An|)  =  -0.05
                               Iterations  =   0
                                  Total H  = 1.110124e+02
                                  Total O  = 5.550622e+01

----------------------------Distribution of species----------------------------

                                            Log       Log         Log     mole V
   Species          Molality    Activity  Molality  Activity     Gamma   cm3/mol

   OH-             1.002e-07   1.001e-07    -6.999    -6.999    -0.000     (0)  
   H+              1.001e-07   1.000e-07    -7.000    -7.000    -0.000      0.00
   H2O             5.551e+01   1.000e+00     1.744     0.000     0.000     17.94
H(0)          1.242e-25
   H2              6.211e-26   6.211e-26   -25.207   -25.207     0.000     20.00
O(0)          0.000e+00
   O2              0.000e+00   0.000e+00   -42.078   -42.078     0.000     35.00

------------------------------Saturation indices-------------------------------

	Phase               SI   log IAP   log K(298 K, 161 atm)

	H2(g)           -22.11    -25.21   -3.10  H2
	H2O(g)           -1.45      0.00    1.45  H2O
	O2(g)           -39.08    -42.08   -2.99  O2


-----------------------------------------
Beginning of batch-reaction calculations.
-----------------------------------------

Reaction step 1.

Using solution 1.	
Using pure phase assemblage 1.	

-------------------------------Phase assemblage--------------------------------

                                                      Moles in assemblage
Phase               SI  log IAP  log K(T, P)   Initial       Final       Delta

CO2(g)            1.60     0.19     -1.41    1.000e+01   8.454e+00  -1.546e+00

-----------------------------Solution composition------------------------------

	Elements           Molality       Moles

	C                 1.547e+00   1.546e+00

----------------------------Description of solution----------------------------

                                       pH  =   3.063      Charge balance
                                       pe  =   2.766      Adjusted to redox equilibrium
       Specific Conductance (uS/cm, 25 oC) = 345
                          Density (g/cm3)  =   1.00449
                        Activity of water  =   0.974
                           Ionic strength  =   8.936e-04
                       Mass of water (kg)  =   1.000e+00
                 Total alkalinity (eq/kg)  =   1.081e-10
                       Total CO2 (mol/kg)  =   1.547e+00
                      Temperature (deg C)  =  25.00
                           Pressure (atm)  = 161.10
                  Electrical balance (eq)  =  -1.081e-10
 Percent error, 100*(Cat-|An|)/(Cat+|An|)  =  -0.00
                               Iterations  =  14
                                  Total H  = 1.110124e+02
                                  Total O  = 5.859920e+01

----------------------------Distribution of species----------------------------

                                            Log       Log         Log     mole V
   Species          Molality    Activity  Molality  Activity     Gamma   cm3/mol

   H+              8.936e-04   8.652e-04    -3.049    -3.063    -0.014      0.00
   OH-             1.165e-11   1.127e-11   -10.934   -10.948    -0.015     (0)  
   H2O             5.551e+01   9.737e-01     1.744    -0.012     0.000     17.94
C(-4)         6.965e-23
   CH4             6.965e-23   6.967e-23   -22.157   -22.157     0.000     33.00
C(4)          1.547e+00
   CO2             1.546e+00   1.546e+00     0.189     0.189     0.000     23.29
   HCO3-           8.936e-04   8.643e-04    -3.049    -3.063    -0.014     24.32
   CO3-2           6.428e-11   5.626e-11   -10.192   -10.250    -0.058     -3.67
H(0)          2.733e-15
   H2              1.366e-15   1.367e-15   -14.864   -14.864     0.000     20.00
O(0)          0.000e+00
   O2              0.000e+00   0.000e+00   -62.786   -62.786     0.000     35.00

------------------------------Saturation indices-------------------------------

	Phase               SI   log IAP   log K(298 K, 161 atm)

	CH4(g)          -19.48    -22.16   -2.68  CH4
	CO2(g)            1.60      0.19   -1.41  CO2	 Pressure 161.1 atm, phi 0.328.
	H2(g)           -11.76    -14.86   -3.10  H2
	H2O(g)           -1.46     -0.01    1.45  H2O
	O2(g)           -59.79    -62.79   -2.99  O2


------------------
End of simulation.
------------------

-------------------------------------
Reading input data for simulation 11.
-------------------------------------

		SOLUTION 1
	 temp 25
	pressure   1.8110e+02
	EQUILIBRIUM_PHASES
	 CO2(g)   2.2579e+00
	END
-------------------------------------------
Beginning of initial solution calculations.
-------------------------------------------

Initial solution 1.	

-----------------------------Solution composition------------------------------

	Elements           Molality       Moles

	Pure water     

----------------------------Description of solution----------------------------

                                       pH  =   7.000    
                                       pe  =   4.000    
       Specific Conductance (uS/cm, 25 oC) = 0
                          Density (g/cm3)  =   1.00537
                        Activity of water  =   1.000
                           Ionic strength  =   1.001e-07
                       Mass of water (kg)  =   1.000e+00
                 Total alkalinity (eq/kg)  =   1.082e-10
                    Total carbon (mol/kg)  =   0.000e+00
                       Total CO2 (mol/kg)  =   0.000e+00
                      Temperature (deg C)  =  25.00
                           Pressure (atm)  = 181.10
                  Electrical balance (eq)  =  -1.082e-10
 Percent error, 100*(Cat-|An|)/(Cat+|An|)  =  -0.05
                               Iterations  =   0
                                  Total H  = 1.110124e+02
                                  Total O  = 5.550622e+01

----------------------------Distribution of species----------------------------

                                            Log       Log         Log     mole V
   Species          Molality    Activity  Molality  Activity     Gamma   cm3/mol

   OH-             1.002e-07   1.001e-07    -6.999    -6.999    -0.000     (0)  
   H+              1.001e-07   1.000e-07    -7.000    -7.000    -0.000      0.00
   H2O             5.551e+01   1.000e+00     1.744     0.000     0.000     17.92
H(0)          1.222e-25
   H2              6.110e-26   6.110e-26   -25.214   -25.214     0.000     20.00
O(0)          0.000e+00
   O2              0.000e+00   0.000e+00   -42.077   -42.077     0.000     35.00

------------------------------Saturation indices-------------------------------

	Phase               SI   log IAP   log K(298 K, 181 atm)

	H2(g)           -22.11    -25.21   -3.10  H2
	H2O(g)           -1.45      0.00    1.45  H2O
	O2(g)           -39.07    -42.08   -3.01  O2


-----------------------------------------
Beginning of batch-reaction calculations.
-----------------------------------------

Reaction step 1.

Using solution 1.	
Using pure phase assemblage 1.	

-------------------------------Phase assemblage--------------------------------

                                                      Moles in assemblage
Phase               SI  log IAP  log K(T, P)   Initial       Final       Delta

CO2(g)            1.60     0.20     -1.40    1.000e+01   8.418e+00  -1.582e+00

-----------------------------Solution composition------------------------------

	Elements           Molality       Moles

	C                 1.582e+00   1.582e+00

----------------------------Description of solution----------------------------

                                       pH  =   3.055      Charge balance
                                       pe  =   2.678      Adjusted to redox equilibrium
       Specific Conductance (uS/cm, 25 oC) = 351
                          Density (g/cm3)  =   1.00541
                        Activity of water  =   0.973
                           Ionic strength  =   9.092e-04
                       Mass of water (kg)  =   1.000e+00
                 Total alkalinity (eq/kg)  =   1.068e-10
                       Total CO2 (mol/kg)  =   1.582e+00
                      Temperature (deg C)  =  25.00
                           Pressure (atm)  = 181.10
                  Electrical balance (eq)  =  -1.068e-10
 Percent error, 100*(Cat-|An|)/(Cat+|An|)  =  -0.00
                               Iterations  =  15
                                  Total H  = 1.110124e+02
                                  Total O  = 5.866976e+01

----------------------------Distribution of species----------------------------

                                            Log       Log         Log     mole V
   Species          Molality    Activity  Molality  Activity     Gamma   cm3/mol

   H+              9.092e-04   8.802e-04    -3.041    -3.055    -0.014      0.00
   OH-             1.145e-11   1.107e-11   -10.941   -10.956    -0.015     (0)  
   H2O             5.551e+01   9.731e-01     1.744    -0.012     0.000     17.92
C(-4)         3.953e-22
   CH4             3.953e-22   3.954e-22   -21.403   -21.403     0.000     33.00
C(4)          1.582e+00
   CO2             1.581e+00   1.581e+00     0.199     0.199     0.000     23.09
   HCO3-           9.092e-04   8.792e-04    -3.041    -3.056    -0.015     24.32
   CO3-2           6.583e-11   5.756e-11   -10.182   -10.240    -0.058     -3.67
H(0)          4.165e-15
   H2              2.082e-15   2.083e-15   -14.681   -14.681     0.000     20.00
O(0)          0.000e+00
   O2              0.000e+00   0.000e+00   -63.166   -63.166     0.000     35.00

------------------------------Saturation indices-------------------------------

	Phase               SI   log IAP   log K(298 K, 181 atm)

	CH4(g)          -18.74    -21.40   -2.66  CH4
	CO2(g)            1.60      0.20   -1.40  CO2	 Pressure 181.1 atm, phi 0.304.
	H2(g)           -11.58    -14.68   -3.10  H2
	H2O(g)           -1.46     -0.01    1.45  H2O
	O2(g)           -60.16    -63.17   -3.01  O2


------------------
End of simulation.
------------------

-------------------------------------
Reading input data for simulation 12.
-------------------------------------

		SOLUTION 1
	 temp 25
	pressure   2.0110e+02
	EQUILIBRIUM_PHASES
	 CO2(g)   2.3034e+00
	END
-------------------------------------------
Beginning of initial solution calculations.
-------------------------------------------

Initial solution 1.	

-----------------------------Solution composition------------------------------

	Elements           Molality       Moles

	Pure water     

----------------------------Description of solution----------------------------

                                       pH  =   7.000    
                                       pe  =   4.000    
       Specific Conductance (uS/cm, 25 oC) = 0
                          Density (g/cm3)  =   1.00629
                        Activity of water  =   1.000
                           Ionic strength  =   1.001e-07
                       Mass of water (kg)  =   1.000e+00
                 Total alkalinity (eq/kg)  =   1.082e-10
                    Total carbon (mol/kg)  =   0.000e+00
                       Total CO2 (mol/kg)  =   0.000e+00
                      Temperature (deg C)  =  25.00
                           Pressure (atm)  = 201.10
                  Electrical balance (eq)  =  -1.082e-10
 Percent error, 100*(Cat-|An|)/(Cat+|An|)  =  -0.05
                               Iterations  =   0
                                  Total H  = 1.110124e+02
                                  Total O  = 5.550622e+01

----------------------------Distribution of species----------------------------

                                            Log       Log         Log     mole V
   Species          Molality    Activity  Molality  Activity     Gamma   cm3/mol

   OH-             1.002e-07   1.001e-07    -6.999    -6.999    -0.000     (0)  
   H+              1.001e-07   1.000e-07    -7.000    -7.000    -0.000      0.00
   H2O             5.551e+01   1.000e+00     1.744     0.000     0.000     17.90
H(0)          1.202e-25
   H2              6.011e-26   6.011e-26   -25.221   -25.221     0.000     20.00
O(0)          0.000e+00
   O2              0.000e+00   0.000e+00   -42.077   -42.077     0.000     35.00

------------------------------Saturation indices-------------------------------

	Phase               SI   log IAP   log K(298 K, 201 atm)

	H2(g)           -22.12    -25.22   -3.10  H2
	H2O(g)           -1.44      0.00    1.44  H2O
	O2(g)           -39.06    -42.08   -3.02  O2


-----------------------------------------
Beginning of batch-reaction calculations.
-----------------------------------------

Reaction step 1.

Using solution 1.	
Using pure phase assemblage 1.	

-------------------------------Phase assemblage--------------------------------

                                                      Moles in assemblage
Phase               SI  log IAP  log K(T, P)   Initial       Final       Delta

CO2(g)            1.60     0.21     -1.39    1.000e+01   8.383e+00  -1.617e+00

-----------------------------Solution composition------------------------------

	Elements           Molality       Moles

	C                 1.617e+00   1.617e+00

----------------------------Description of solution----------------------------

                                       pH  =   3.048      Charge balance
                                       pe  =   2.696      Adjusted to redox equilibrium
       Specific Conductance (uS/cm, 25 oC) = 357
                          Density (g/cm3)  =   1.00633
                        Activity of water  =   0.972
                           Ionic strength  =   9.247e-04
                       Mass of water (kg)  =   1.000e+00
                 Total alkalinity (eq/kg)  =   1.080e-10
                       Total CO2 (mol/kg)  =   1.617e+00
                      Temperature (deg C)  =  25.00
                           Pressure (atm)  = 201.10
                  Electrical balance (eq)  =  -1.080e-10
 Percent error, 100*(Cat-|An|)/(Cat+|An|)  =  -0.00
                               Iterations  =  14
                                  Total H  = 1.110124e+02
                                  Total O  = 5.874004e+01

----------------------------Distribution of species----------------------------

                                            Log       Log         Log     mole V
   Species          Molality    Activity  Molality  Activity     Gamma   cm3/mol

   H+              9.247e-04   8.949e-04    -3.034    -3.048    -0.014      0.00
   OH-             1.126e-11   1.088e-11   -10.948   -10.963    -0.015     (0)  
   H2O             5.551e+01   9.725e-01     1.744    -0.012     0.000     17.90
C(-4)         3.205e-22
   CH4             3.205e-22   3.206e-22   -21.494   -21.494     0.000     33.00
C(4)          1.617e+00
   CO2             1.616e+00   1.616e+00     0.208     0.209     0.000     22.90
   HCO3-           9.247e-04   8.940e-04    -3.034    -3.049    -0.015     24.32
   CO3-2           6.743e-11   5.889e-11   -10.171   -10.230    -0.059     -3.67
H(0)          3.903e-15
   H2              1.951e-15   1.952e-15   -14.710   -14.710     0.000     20.00
O(0)          0.000e+00
   O2              0.000e+00   0.000e+00   -63.124   -63.124     0.000     35.00

------------------------------Saturation indices-------------------------------

	Phase               SI   log IAP   log K(298 K, 201 atm)

	CH4(g)          -18.85    -21.49   -2.64  CH4
	CO2(g)            1.60      0.21   -1.39  CO2	 Pressure 201.1 atm, phi 0.285.
	H2(g)           -11.61    -14.71   -3.10  H2
	H2O(g)           -1.45     -0.01    1.44  H2O
	O2(g)           -60.10    -63.12   -3.02  O2


------------------
End of simulation.
------------------

-------------------------------------
Reading input data for simulation 13.
-------------------------------------

		SOLUTION 1
	 temp 25
	pressure   2.2110e+02
	EQUILIBRIUM_PHASES
	 CO2(g)   2.3446e+00
	END
-------------------------------------------
Beginning of initial solution calculations.
-------------------------------------------

Initial solution 1.	

-----------------------------Solution composition------------------------------

	Elements           Molality       Moles

	Pure water     

----------------------------Description of solution----------------------------

                                       pH  =   7.000    
                                       pe  =   4.000    
       Specific Conductance (uS/cm, 25 oC) = 0
                          Density (g/cm3)  =   1.00721
                        Activity of water  =   1.000
                           Ionic strength  =   1.001e-07
                       Mass of water (kg)  =   1.000e+00
                 Total alkalinity (eq/kg)  =   1.082e-10
                    Total carbon (mol/kg)  =   0.000e+00
                       Total CO2 (mol/kg)  =   0.000e+00
                      Temperature (deg C)  =  25.00
                           Pressure (atm)  = 221.10
                  Electrical balance (eq)  =  -1.082e-10
 Percent error, 100*(Cat-|An|)/(Cat+|An|)  =  -0.05
                               Iterations  =   0
                                  Total H  = 1.110124e+02
                                  Total O  = 5.550622e+01

----------------------------Distribution of species----------------------------

                                            Log       Log         Log     mole V
   Species          Molality    Activity  Molality  Activity     Gamma   cm3/mol

   OH-             1.002e-07   1.001e-07    -6.999    -6.999    -0.000     (0)  
   H+              1.001e-07   1.000e-07    -7.000    -7.000    -0.000      0.00
   H2O             5.551e+01   1.000e+00     1.744     0.000     0.000     17.89
H(0)          1.183e-25
   H2              5.914e-26   5.914e-26   -25.228   -25.228     0.000     20.00
O(0)          0.000e+00
   O2              0.000e+00   0.000e+00   -42.077   -42.077     0.000     35.00

------------------------------Saturation indices-------------------------------

	Phase               SI   log IAP   log K(298 K, 221 atm)

	H2(g)           -22.13    -25.23   -3.10  H2
	H2O(g)           -1.43      0.00    1.43  H2O
	O2(g)           -39.04    -42.08   -3.03  O2


-----------------------------------------
Beginning of batch-reaction calculations.
-----------------------------------------

Reaction step 1.

Using solution 1.	
Using pure phase assemblage 1.	

-------------------------------Phase assemblage--------------------------------

                                                      Moles in assemblage
Phase               SI  log IAP  log K(T, P)   Initial       Final       Delta

CO2(g)            1.60     0.22     -1.38    1.000e+01   8.348e+00  -1.652e+00

-----------------------------Solution composition------------------------------

	Elements           Molality       Moles

	C                 1.652e+00   1.652e+00

----------------------------Description of solution----------------------------

                                       pH  =   3.041      Charge balance
                                       pe  =   2.697      Adjusted to redox equilibrium
       Specific Conductance (uS/cm, 25 oC) = 363
                          Density (g/cm3)  =   1.00725
                        Activity of water  =   0.972
                           Ionic strength  =   9.401e-04
                       Mass of water (kg)  =   1.000e+00
                 Total alkalinity (eq/kg)  =   1.080e-10
                       Total CO2 (mol/kg)  =   1.652e+00
                      Temperature (deg C)  =  25.00
                           Pressure (atm)  = 221.10
                  Electrical balance (eq)  =  -1.080e-10
 Percent error, 100*(Cat-|An|)/(Cat+|An|)  =  -0.00
                               Iterations  =  14
                                  Total H  = 1.110124e+02
                                  Total O  = 5.881039e+01

----------------------------Distribution of species----------------------------

                                            Log       Log         Log     mole V
   Species          Molality    Activity  Molality  Activity     Gamma   cm3/mol

   H+              9.401e-04   9.096e-04    -3.027    -3.041    -0.014      0.00
   OH-             1.107e-11   1.070e-11   -10.956   -10.971    -0.015     (0)  
   H2O             5.551e+01   9.719e-01     1.744    -0.012     0.000     17.89
C(-4)         3.525e-22
   CH4             3.525e-22   3.526e-22   -21.453   -21.453     0.000     33.00
C(4)          1.652e+00
   CO2             1.651e+00   1.652e+00     0.218     0.218     0.000     22.71
   HCO3-           9.401e-04   9.086e-04    -3.027    -3.042    -0.015     24.32
   CO3-2           6.906e-11   6.025e-11   -10.161   -10.220    -0.059     -3.67
H(0)          3.948e-15
   H2              1.974e-15   1.974e-15   -14.705   -14.705     0.000     20.00
O(0)          0.000e+00
   O2              0.000e+00   0.000e+00   -63.149   -63.149     0.000     35.00

------------------------------Saturation indices-------------------------------

	Phase               SI   log IAP   log K(298 K, 221 atm)

	CH4(g)          -18.83    -21.45   -2.62  CH4
	CO2(g)            1.60      0.22   -1.38  CO2	 Pressure 221.1 atm, phi 0.269.
	H2(g)           -11.60    -14.70   -3.10  H2
	H2O(g)           -1.45     -0.01    1.43  H2O
	O2(g)           -60.12    -63.15   -3.03  O2


------------------
End of simulation.
------------------

-------------------------------------
Reading input data for simulation 14.
-------------------------------------

		SOLUTION 1
	 temp 25
	pressure   2.4110e+02
	EQUILIBRIUM_PHASES
	 CO2(g)   2.3822e+00
	END
-------------------------------------------
Beginning of initial solution calculations.
-------------------------------------------

Initial solution 1.	

-----------------------------Solution composition------------------------------

	Elements           Molality       Moles

	Pure water     

----------------------------Description of solution----------------------------

                                       pH  =   7.000    
                                       pe  =   4.000    
       Specific Conductance (uS/cm, 25 oC) = 0
                          Density (g/cm3)  =   1.00813
                        Activity of water  =   1.000
                           Ionic strength  =   1.001e-07
                       Mass of water (kg)  =   1.000e+00
                 Total alkalinity (eq/kg)  =   1.082e-10
                    Total carbon (mol/kg)  =   0.000e+00
                       Total CO2 (mol/kg)  =   0.000e+00
                      Temperature (deg C)  =  25.00
                           Pressure (atm)  = 241.10
                  Electrical balance (eq)  =  -1.082e-10
 Percent error, 100*(Cat-|An|)/(Cat+|An|)  =  -0.05
                               Iterations  =   0
                                  Total H  = 1.110124e+02
                                  Total O  = 5.550622e+01

----------------------------Distribution of species----------------------------

                                            Log       Log         Log     mole V
   Species          Molality    Activity  Molality  Activity     Gamma   cm3/mol

   OH-             1.002e-07   1.001e-07    -6.999    -6.999    -0.000     (0)  
   H+              1.001e-07   1.000e-07    -7.000    -7.000    -0.000      0.00
   H2O             5.551e+01   1.000e+00     1.744     0.000     0.000     17.87
H(0)          1.164e-25
   H2              5.818e-26   5.818e-26   -25.235   -25.235     0.000     20.00
O(0)          0.000e+00
   O2              0.000e+00   0.000e+00   -42.077   -42.077     0.000     35.00

------------------------------Saturation indices-------------------------------

	Phase               SI   log IAP   log K(298 K, 241 atm)

	H2(g)           -22.13    -25.24   -3.10  H2
	H2O(g)           -1.43      0.00    1.43  H2O
	O2(g)           -39.03    -42.08   -3.04  O2


-----------------------------------------
Beginning of batch-reaction calculations.
-----------------------------------------

Reaction step 1.

Using solution 1.	
Using pure phase assemblage 1.	

-------------------------------Phase assemblage--------------------------------

                                                      Moles in assemblage
Phase               SI  log IAP  log K(T, P)   Initial       Final       Delta

CO2(g)            1.60     0.23     -1.38    1.000e+01   8.313e+00  -1.687e+00

-----------------------------Solution composition------------------------------

	Elements           Molality       Moles

	C                 1.687e+00   1.687e+00

----------------------------Description of solution----------------------------

                                       pH  =   3.034      Charge balance
                                       pe  =   2.710      Adjusted to redox equilibrium
       Specific Conductance (uS/cm, 25 oC) = 368
                          Density (g/cm3)  =   1.00817
                        Activity of water  =   0.971
                           Ionic strength  =   9.554e-04
                       Mass of water (kg)  =   1.000e+00
                 Total alkalinity (eq/kg)  =   1.080e-10
                       Total CO2 (mol/kg)  =   1.687e+00
                      Temperature (deg C)  =  25.00
                           Pressure (atm)  = 241.10
                  Electrical balance (eq)  =  -1.080e-10
 Percent error, 100*(Cat-|An|)/(Cat+|An|)  =  -0.00
                               Iterations  =  14
                                  Total H  = 1.110124e+02
                                  Total O  = 5.888096e+01

----------------------------Distribution of species----------------------------

                                            Log       Log         Log     mole V
   Species          Molality    Activity  Molality  Activity     Gamma   cm3/mol

   H+              9.554e-04   9.242e-04    -3.020    -3.034    -0.014      0.00
   OH-             1.090e-11   1.052e-11   -10.963   -10.978    -0.015     (0)  
   H2O             5.551e+01   9.713e-01     1.744    -0.013     0.000     17.87
C(-4)         3.110e-22
   CH4             3.110e-22   3.110e-22   -21.507   -21.507     0.000     33.00
C(4)          1.687e+00
   CO2             1.686e+00   1.687e+00     0.227     0.227     0.000     22.51
   HCO3-           9.554e-04   9.231e-04    -3.020    -3.035    -0.015     24.32
   CO3-2           7.073e-11   6.165e-11   -10.150   -10.210    -0.060     -3.66
H(0)          3.780e-15
   H2              1.890e-15   1.890e-15   -14.724   -14.723     0.000     20.00
O(0)          0.000e+00
   O2              0.000e+00   0.000e+00   -63.126   -63.126     0.000     35.00

------------------------------Saturation indices-------------------------------

	Phase               SI   log IAP   log K(298 K, 241 atm)

	CH4(g)          -18.91    -21.51   -2.60  CH4
[...]

                                       pH  =   3.008      Charge balance
                                       pe  =   2.229      Adjusted to redox equilibrium
       Specific Conductance (uS/cm, 75 oC) = 925
                          Density (g/cm3)  =   0.99517
                        Activity of water  =   0.971
                           Ionic strength  =   1.021e-03
                       Mass of water (kg)  =   1.000e+00
                 Total alkalinity (eq/kg)  =   1.854e-06
                       Total CO2 (mol/kg)  =   1.708e+00
                      Temperature (deg C)  =  75.00
                           Pressure (atm)  = 441.10
                  Electrical balance (eq)  =  -1.854e-06
 Percent error, 100*(Cat-|An|)/(Cat+|An|)  =  -0.09
                               Iterations  =  15
                                  Total H  = 1.110124e+02
                                  Total O  = 5.892155e+01

----------------------------Distribution of species----------------------------

                                            Log       Log         Log     mole V
   Species          Molality    Activity  Molality  Activity     Gamma   cm3/mol

   H+              1.020e-03   9.823e-04    -2.991    -3.008    -0.016      0.00
   OH-             2.008e-10   1.929e-10    -9.697    -9.715    -0.017     (0)  
   H2O             5.551e+01   9.710e-01     1.744    -0.013     0.000     18.10
C(-4)         1.645e-24
   CH4             1.645e-24   1.645e-24   -23.784   -23.784     0.000     33.00
C(4)          1.708e+00
   CO2             1.707e+00   1.707e+00     0.232     0.232     0.000     17.27
   HCO3-           1.022e-03   9.827e-04    -2.991    -3.008    -0.017     22.35
   CO3-2           1.420e-10   1.214e-10    -9.848    -9.916    -0.068     -8.92
H(0)          2.285e-14
   H2              1.142e-14   1.143e-14   -13.942   -13.942     0.000     20.00
O(0)          0.000e+00
   O2              0.000e+00   0.000e+00   -50.962   -50.962     0.000     35.00

------------------------------Saturation indices-------------------------------

	Phase               SI   log IAP   log K(348 K, 441 atm)

	CH4(g)          -21.15    -23.78   -2.63  CH4
	CO2(g)            1.93      0.23   -1.69  CO2	 Pressure 441.1 atm, phi 0.377.
	H2(g)           -10.81    -13.94   -3.13  H2
	H2O(g)           -0.31     -0.01    0.30  H2O
	O2(g)           -47.62    -50.96   -3.34  O2


------------------
End of simulation.
------------------

-------------------------------------
Reading input data for simulation 81.
-------------------------------------

		SOLUTION 1
	 temp 75
	pressure   4.6110e+02
	EQUILIBRIUM_PHASES
	 CO2(g)   2.6638e+00
	END
-------------------------------------------
Beginning of initial solution calculations.
-------------------------------------------

Initial solution 1.	

-----------------------------Solution composition------------------------------

	Elements           Molality       Moles

	Pure water     

----------------------------Description of solution----------------------------

                                       pH  =   7.000    
                                       pe  =   4.000    
       Specific Conductance (uS/cm, 75 oC) = 0
                          Density (g/cm3)  =   0.99605
                        Activity of water  =   1.000
                           Ionic strength  =   1.027e-06
                       Mass of water (kg)  =   1.000e+00
                 Total alkalinity (eq/kg)  =   1.854e-06
                    Total carbon (mol/kg)  =   0.000e+00
                       Total CO2 (mol/kg)  =   0.000e+00
                      Temperature (deg C)  =  75.00
                           Pressure (atm)  = 461.10
                  Electrical balance (eq)  =  -1.854e-06
 Percent error, 100*(Cat-|An|)/(Cat+|An|)  = -90.25
                               Iterations  =   2
                                  Total H  = 1.110124e+02
                                  Total O  = 5.550622e+01

----------------------------Distribution of species----------------------------

                                            Log       Log         Log     mole V
   Species          Molality    Activity  Molality  Activity     Gamma   cm3/mol

   OH-             1.954e-06   1.951e-06    -5.709    -5.710    -0.001     (0)  
   H+              1.001e-07   1.000e-07    -6.999    -7.000    -0.001      0.00
   H2O             5.551e+01   1.000e+00     1.744    -0.000     0.000     18.09
H(0)          6.699e-26
   H2              3.349e-26   3.349e-26   -25.475   -25.475     0.000     20.00
O(0)          2.620e-28
   O2              1.310e-28   1.310e-28   -27.883   -27.883     0.000     35.00

------------------------------Saturation indices-------------------------------

	Phase               SI   log IAP   log K(348 K, 461 atm)

	H2(g)           -22.34    -25.48   -3.13  H2
	H2O(g)           -0.30     -0.00    0.30  H2O
	O2(g)           -24.53    -27.88   -3.35  O2


-----------------------------------------
Beginning of batch-reaction calculations.
-----------------------------------------

Reaction step 1.

Using solution 1.	
Using pure phase assemblage 1.	

-------------------------------Phase assemblage--------------------------------

                                                      Moles in assemblage
Phase               SI  log IAP  log K(T, P)   Initial       Final       Delta

CO2(g)            1.93     0.24     -1.68    1.000e+01   8.248e+00  -1.752e+00

-----------------------------Solution composition------------------------------

	Elements           Molality       Moles

	C                 1.752e+00   1.752e+00

----------------------------Description of solution----------------------------

                                       pH  =   3.001      Charge balance
                                       pe  =   2.216      Adjusted to redox equilibrium
       Specific Conductance (uS/cm, 75 oC) = 939
                          Density (g/cm3)  =   0.99609
                        Activity of water  =   0.970
                           Ionic strength  =   1.037e-03
                       Mass of water (kg)  =   1.000e+00
                 Total alkalinity (eq/kg)  =   1.854e-06
                       Total CO2 (mol/kg)  =   1.752e+00
                      Temperature (deg C)  =  75.00
                           Pressure (atm)  = 461.10
                  Electrical balance (eq)  =  -1.854e-06
 Percent error, 100*(Cat-|An|)/(Cat+|An|)  =  -0.09
                               Iterations  =  16
                                  Total H  = 1.110124e+02
                                  Total O  = 5.901002e+01

----------------------------Distribution of species----------------------------

                                            Log       Log         Log     mole V
   Species          Molality    Activity  Molality  Activity     Gamma   cm3/mol

   H+              1.036e-03   9.974e-04    -2.985    -3.001    -0.017      0.00
   OH-             1.976e-10   1.898e-10    -9.704    -9.722    -0.018     (0)  
   H2O             5.551e+01   9.702e-01     1.744    -0.013     0.000     18.09
C(-4)         2.304e-24
   CH4             2.304e-24   2.304e-24   -23.638   -23.637     0.000     33.00
C(4)          1.752e+00
   CO2             1.751e+00   1.751e+00     0.243     0.243     0.000     17.08
   HCO3-           1.038e-03   9.978e-04    -2.984    -3.001    -0.017     22.35
   CO3-2           1.453e-10   1.240e-10    -9.838    -9.906    -0.069     -8.91
H(0)          2.458e-14
   H2              1.229e-14   1.229e-14   -13.910   -13.910     0.000     20.00
O(0)          0.000e+00
   O2              0.000e+00   0.000e+00   -51.039   -51.038     0.000     35.00

------------------------------Saturation indices-------------------------------

	Phase               SI   log IAP   log K(348 K, 461 atm)

	CH4(g)          -21.02    -23.64   -2.61  CH4
	CO2(g)            1.93      0.24   -1.68  CO2	 Pressure 461.1 atm, phi 0.374.
	H2(g)           -10.78    -13.91   -3.13  H2
	H2O(g)           -0.31     -0.01    0.30  H2O
	O2(g)           -47.69    -51.04   -3.35  O2


------------------
End of simulation.
------------------

-------------------------------------
Reading input data for simulation 82.
-------------------------------------

		SOLUTION 1
	 temp 75
	pressure   4.8110e+02
	EQUILIBRIUM_PHASES
	 CO2(g)   2.6822e+00
	END
-------------------------------------------
Beginning of initial solution calculations.
-------------------------------------------

Initial solution 1.	

-----------------------------Solution composition------------------------------

	Elements           Molality       Moles

	Pure water     

----------------------------Description of solution----------------------------

                                       pH  =   7.000    
                                       pe  =   4.000    
       Specific Conductance (uS/cm, 75 oC) = 0
                          Density (g/cm3)  =   0.99697
                        Activity of water  =   1.000
                           Ionic strength  =   1.027e-06
                       Mass of water (kg)  =   1.000e+00
                 Total alkalinity (eq/kg)  =   1.854e-06
                    Total carbon (mol/kg)  =   0.000e+00
                       Total CO2 (mol/kg)  =   0.000e+00
                      Temperature (deg C)  =  75.00
                           Pressure (atm)  = 481.10
                  Electrical balance (eq)  =  -1.854e-06
 Percent error, 100*(Cat-|An|)/(Cat+|An|)  = -90.25
                               Iterations  =   2
                                  Total H  = 1.110124e+02
                                  Total O  = 5.550622e+01

----------------------------Distribution of species----------------------------

                                            Log       Log         Log     mole V
   Species          Molality    Activity  Molality  Activity     Gamma   cm3/mol

   OH-             1.954e-06   1.951e-06    -5.709    -5.710    -0.001     (0)  
   H+              1.001e-07   1.000e-07    -6.999    -7.000    -0.001      0.00
   H2O             5.551e+01   1.000e+00     1.744    -0.000     0.000     18.07
H(0)          6.605e-26
   H2              3.303e-26   3.303e-26   -25.481   -25.481     0.000     20.00
O(0)          2.621e-28
   O2              1.311e-28   1.311e-28   -27.883   -27.883     0.000     35.00

------------------------------Saturation indices-------------------------------

	Phase               SI   log IAP   log K(348 K, 481 atm)

	H2(g)           -22.35    -25.48   -3.13  H2
	H2O(g)           -0.29     -0.00    0.29  H2O
	O2(g)           -24.52    -27.88   -3.36  O2


-----------------------------------------
Beginning of batch-reaction calculations.
-----------------------------------------

Reaction step 1.

Using solution 1.	
Using pure phase assemblage 1.	

-------------------------------Phase assemblage--------------------------------

                                                      Moles in assemblage
Phase               SI  log IAP  log K(T, P)   Initial       Final       Delta

CO2(g)            1.93     0.25     -1.68    1.000e+01   8.203e+00  -1.797e+00

-----------------------------Solution composition------------------------------

	Elements           Molality       Moles

	C                 1.797e+00   1.797e+00

----------------------------Description of solution----------------------------

                                       pH  =   2.995      Charge balance
                                       pe  =   2.223      Adjusted to redox equilibrium
       Specific Conductance (uS/cm, 75 oC) = 954
                          Density (g/cm3)  =   0.99701
                        Activity of water  =   0.969
                           Ionic strength  =   1.053e-03
                       Mass of water (kg)  =   1.000e+00
                 Total alkalinity (eq/kg)  =   1.854e-06
                       Total CO2 (mol/kg)  =   1.797e+00
                      Temperature (deg C)  =  75.00
                           Pressure (atm)  = 481.10
                  Electrical balance (eq)  =  -1.854e-06
 Percent error, 100*(Cat-|An|)/(Cat+|An|)  =  -0.09
                               Iterations  =  16
                                  Total H  = 1.110124e+02
                                  Total O  = 5.909947e+01

----------------------------Distribution of species----------------------------

                                            Log       Log         Log     mole V
   Species          Molality    Activity  Molality  Activity     Gamma   cm3/mol

   H+              1.052e-03   1.012e-03    -2.978    -2.995    -0.017      0.00
   OH-             1.946e-10   1.869e-10    -9.711    -9.728    -0.018     (0)  
   H2O             5.551e+01   9.694e-01     1.744    -0.013     0.000     18.07
C(-4)         2.282e-24
   CH4             2.282e-24   2.283e-24   -23.642   -23.642     0.000     33.00
C(4)          1.797e+00
   CO2             1.796e+00   1.796e+00     0.254     0.254     0.000     16.88
   HCO3-           1.054e-03   1.013e-03    -2.977    -2.994    -0.017     22.35
   CO3-2           1.487e-10   1.268e-10    -9.828    -9.897    -0.069     -8.91
H(0)          2.426e-14
   H2              1.213e-14   1.213e-14   -13.916   -13.916     0.000     20.00
O(0)          0.000e+00
   O2              0.000e+00   0.000e+00   -51.040   -51.040     0.000     35.00

------------------------------Saturation indices-------------------------------

	Phase               SI   log IAP   log K(348 K, 481 atm)

	CH4(g)          -21.05    -23.64   -2.59  CH4
	CO2(g)            1.93      0.25   -1.68  CO2	 Pressure 481.1 atm, phi 0.371.
	H2(g)           -10.78    -13.92   -3.13  H2
	H2O(g)           -0.30     -0.01    0.29  H2O
	O2(g)           -47.68    -51.04   -3.36  O2


------------------
End of simulation.
------------------

-------------------------------------
Reading input data for simulation 83.
-------------------------------------

		SOLUTION 1
	 temp 75
	pressure   5.0110e+02
	EQUILIBRIUM_PHASES
	 CO2(g)   2.6999e+00
	END
-------------------------------------------
Beginning of initial solution calculations.
-------------------------------------------

Initial solution 1.	

-----------------------------Solution composition------------------------------

	Elements           Molality       Moles

	Pure water     

----------------------------Description of solution----------------------------

                                       pH  =   7.000    
                                       pe  =   4.000    
       Specific Conductance (uS/cm, 75 oC) = 0
                          Density (g/cm3)  =   0.99789
                        Activity of water  =   1.000
                           Ionic strength  =   1.027e-06
                       Mass of water (kg)  =   1.000e+00
                 Total alkalinity (eq/kg)  =   1.854e-06
                    Total carbon (mol/kg)  =   0.000e+00
                       Total CO2 (mol/kg)  =   0.000e+00
                      Temperature (deg C)  =  75.00
                           Pressure (atm)  = 501.10
                  Electrical balance (eq)  =  -1.854e-06
 Percent error, 100*(Cat-|An|)/(Cat+|An|)  = -90.25
                               Iterations  =   2
                                  Total H  = 1.110124e+02
                                  Total O  = 5.550622e+01

----------------------------Distribution of species----------------------------

                                            Log       Log         Log     mole V
   Species          Molality    Activity  Molality  Activity     Gamma   cm3/mol

   OH-             1.954e-06   1.951e-06    -5.709    -5.710    -0.001     (0)  
   H+              1.001e-07   1.000e-07    -6.999    -7.000    -0.001      0.00
   H2O             5.551e+01   1.000e+00     1.744    -0.000     0.000     18.05
H(0)          6.514e-26
   H2              3.257e-26   3.257e-26   -25.487   -25.487     0.000     20.00
O(0)          2.622e-28
   O2              1.311e-28   1.311e-28   -27.882   -27.882     0.000     35.00

------------------------------Saturation indices-------------------------------

	Phase               SI   log IAP   log K(348 K, 501 atm)

	H2(g)           -22.35    -25.49   -3.13  H2
	H2O(g)           -0.29     -0.00    0.29  H2O
	O2(g)           -24.51    -27.88   -3.37  O2


-----------------------------------------
Beginning of batch-reaction calculations.
-----------------------------------------

Reaction step 1.

Using solution 1.	
Using pure phase assemblage 1.	

-------------------------------Phase assemblage--------------------------------

                                                      Moles in assemblage
Phase               SI  log IAP  log K(T, P)   Initial       Final       Delta

CO2(g)            1.93     0.27     -1.67    1.000e+01   8.158e+00  -1.842e+00

-----------------------------Solution composition------------------------------

	Elements           Molality       Moles

	C                 1.842e+00   1.842e+00

----------------------------Description of solution----------------------------

                                       pH  =   2.988      Charge balance
                                       pe  =   2.243      Adjusted to redox equilibrium
       Specific Conductance (uS/cm, 75 oC) = 968
                          Density (g/cm3)  =   0.99793
                        Activity of water  =   0.969
                           Ionic strength  =   1.069e-03
                       Mass of water (kg)  =   1.000e+00
                 Total alkalinity (eq/kg)  =   1.854e-06
                       Total CO2 (mol/kg)  =   1.842e+00
                      Temperature (deg C)  =  75.00
                           Pressure (atm)  = 501.10
                  Electrical balance (eq)  =  -1.854e-06
 Percent error, 100*(Cat-|An|)/(Cat+|An|)  =  -0.09
                               Iterations  =  16
                                  Total H  = 1.110124e+02
                                  Total O  = 5.919091e+01

----------------------------Distribution of species----------------------------

                                            Log       Log         Log     mole V
   Species          Molality    Activity  Molality  Activity     Gamma   cm3/mol

   H+              1.068e-03   1.027e-03    -2.971    -2.988    -0.017      0.00
   OH-             1.917e-10   1.840e-10    -9.717    -9.735    -0.018     (0)  
   H2O             5.551e+01   9.687e-01     1.744    -0.014     0.000     18.05
C(-4)         1.762e-24
   CH4             1.762e-24   1.762e-24   -23.754   -23.754     0.000     33.00
C(4)          1.842e+00
   CO2             1.841e+00   1.842e+00     0.265     0.265     0.000     16.69
   HCO3-           1.070e-03   1.028e-03    -2.971    -2.988    -0.017     22.35
   CO3-2           1.521e-10   1.296e-10    -9.818    -9.887    -0.070     -8.91
H(0)          2.249e-14
   H2              1.125e-14   1.125e-14   -13.949   -13.949     0.000     20.00
O(0)          0.000e+00
   O2              0.000e+00   0.000e+00   -50.987   -50.987     0.000     35.00

------------------------------Saturation indices-------------------------------

	Phase               SI   log IAP   log K(348 K, 501 atm)

	CH4(g)          -21.18    -23.75   -2.57  CH4
	CO2(g)            1.93      0.27   -1.67  CO2	 Pressure 501.1 atm, phi 0.368.
	H2(g)           -10.82    -13.95   -3.13  H2
	H2O(g)           -0.30     -0.01    0.29  H2O
	O2(g)           -47.61    -50.99   -3.37  O2


------------------
End of simulation.
------------------

-------------------------------------
Reading input data for simulation 84.
-------------------------------------

	END
------------------
End of simulation.
------------------

-------------------------------------
Reading input data for simulation 85.
-------------------------------------

-----------
End of run.
-----------

