   Input file: eco
  Output file: eco.out
Database file: eco.dat

------------------
Reading data base.
------------------

	SOLUTION_MASTER_SPECIES
	SOLUTION_SPECIES
	SURFACE_MASTER_SPECIES
	SURFACE_SPECIES
------------------------------------
Reading input data for simulation 1.
------------------------------------

	DATABASE eco.dat
	PHASES
	Fix_pH
		H+ = H+
		log_k 0
	END
------------------
End of simulation.
------------------

------------------------------------
Reading input data for simulation 2.
------------------------------------

	SOLUTION 1
		 units mmol/kgw
		 pH	7 charge
		 Na	10
		 Cl	10
		 As	1 umol/kgw
		 P	1 umol/kgw
	END
-------------------------------------------
Beginning of initial solution calculations.
-------------------------------------------

Initial solution 1.	

-----------------------------Solution composition------------------------------

	Elements           Molality       Moles

	As                1.000e-06   1.000e-06
	Cl                1.000e-02   1.000e-02
	Na                1.000e-02   1.000e-02
	P                 1.000e-06   1.000e-06

----------------------------Description of solution----------------------------

                                       pH  =   5.711      Charge balance
                                       pe  =   4.000    
                        Activity of water  =   1.000
                           Ionic strength  =   9.922e-03
                       Mass of water (kg)  =   1.000e+00
                 Total alkalinity (eq/kg)  =  -2.000e-06
                    Total carbon (mol/kg)  =   0.000e+00
                       Total CO2 (mol/kg)  =   0.000e+00
                      Temperature (deg C)  =  25.00
                  Electrical balance (eq)  =  -8.455e-18
 Percent error, 100*(Cat-|An|)/(Cat+|An|)  =  -0.00
                               Iterations  =   7
                                  Total H  = 1.110124e+02
                                  Total O  = 5.550622e+01

----------------------------Distribution of species----------------------------

                                            Log       Log         Log     mole V
   Species          Molality    Activity  Molality  Activity     Gamma   cm3/mol

   H+              2.156e-06   1.946e-06    -5.666    -5.711    -0.045      0.00
   OH-             5.694e-09   5.138e-09    -8.245    -8.289    -0.045     (0)  
   H2O             5.551e+01   9.997e-01     1.744    -0.000     0.000     18.07
As            1.000e-06
   H2AsO4-         8.909e-07   8.039e-07    -6.050    -6.095    -0.045     (0)  
   HAsO4-2         1.088e-07   7.213e-08    -6.963    -7.142    -0.178     (0)  
   H3AsO4          2.731e-10   2.737e-10    -9.564    -9.563     0.001     (0)  
   AsO4-3          2.369e-13   9.398e-14   -12.625   -13.027    -0.402     (0)  
Cl            1.000e-02
   Cl-             9.920e-03   8.951e-03    -2.003    -2.048    -0.045     (0)  
   NaCl            7.995e-05   8.013e-05    -4.097    -4.096     0.001     (0)  
H(0)          5.348e-23
   H2              2.674e-23   2.680e-23   -22.573   -22.572     0.001     (0)  
Na            1.000e-02
   Na+             9.920e-03   8.951e-03    -2.003    -2.048    -0.045     (0)  
   NaCl            7.995e-05   8.013e-05    -4.097    -4.096     0.001     (0)  
   NaOH            2.895e-11   2.902e-11   -10.538   -10.537     0.001     (0)  
O(0)          0.000e+00
   O2              0.000e+00   0.000e+00   -47.238   -47.237     0.001     (0)  
P             1.000e-06
   H2PO4-          9.575e-07   8.640e-07    -6.019    -6.063    -0.045     (0)  
   HPO4-2          4.226e-08   2.802e-08    -7.374    -7.553    -0.178     (0)  
   H3PO4           2.369e-10   2.375e-10    -9.625    -9.624     0.001     (0)  
   (H2PO4)2-2      5.029e-13   3.335e-13   -12.298   -12.477    -0.178     (0)  
   PO4-3           1.622e-14   6.432e-15   -13.790   -14.192    -0.402     (0)  
   H2P2O7-2        2.196e-18   1.456e-18   -17.658   -17.837    -0.178     (0)  
   HP2O7-3         3.764e-19   1.493e-19   -18.424   -18.826    -0.402     (0)  
   H3P2O7-         5.983e-22   5.398e-22   -21.223   -21.268    -0.045     (0)  
   P2O7-4          1.545e-22   2.986e-23   -21.811   -22.525    -0.714     (0)  
   H4P2O7          6.612e-27   6.628e-27   -26.180   -26.179     0.001     (0)  

------------------------------Saturation indices-------------------------------

	Phase               SI   log IAP   log K(298 K,   1 atm)

	Fix_pH           -5.71     -5.71    0.00  H+


------------------
End of simulation.
------------------

------------------------------------
Reading input data for simulation 3.
------------------------------------

	SURFACE
		Goe_uniOHH0.5 .000552 96.387 1  # 1.1   5
			  capacitances	  1.1 5
		Goe_triOH0.5  .000432
		cd_music
	END
------------------
End of simulation.
------------------

------------------------------------
Reading input data for simulation 4.
------------------------------------

	USER_PRINT
	10 PRINT  "Charge, plane 0, eq                   ", edl("charge", "Goe")
	20 PRINT  "Charge, plane 1, eq                   ", edl("charge1", "Goe")
	30 PRINT  "Charge, plane 2, eq                   ", edl("charge2", "Goe")
	110 PRINT "Sigma, plane 0, C/m^2                 ", edl("sigma", "Goe")
	120 PRINT "Sigma, plane 1, C/m^2                 ", edl("sigma1", "Goe")
	130 PRINT "Sigma, plane 2, C/m^2                 ", edl("sigma2", "Goe")
	210 PRINT "Psi, plane 0, V                       ", edl("psi", "Goe")
	220 PRINT "Psi, plane 1, V                       ", edl("psi1", "Goe")
	230 PRINT "Psi, plane 2, V                       ", edl("psi2", "Goe")
	USE solution 1
	USE surface 1
	EQUILIBRIUM_PHASES
	Fix_pH -10 NaOH 10
	END
-----------------------------------------
Beginning of batch-reaction calculations.
-----------------------------------------

Reaction step 1.

Using solution 1.	
Using surface 1.	
Using pure phase assemblage 1.	

----------------------------------User print-----------------------------------

Charge, plane 0, eq                     -7.0451e-06 
Charge, plane 1, eq                     -4.4407e-06 
Charge, plane 2, eq                      1.9717e-06 
Sigma, plane 0, C/m^2                   -7.0529e-03 
Sigma, plane 1, C/m^2                   -4.4456e-03 
Sigma, plane 2, C/m^2                    1.9739e-03 
Psi, plane 0, V                         -4.6744e-02 
Psi, plane 1, V                         -4.0332e-02 
Psi, plane 2, V                         -3.8032e-02 

-------------------------------Phase assemblage--------------------------------

                                                      Moles in assemblage
Phase               SI  log IAP  log K(T, P)   Initial       Final       Delta

Fix_pH          -10.00   -10.00      0.00
	 NaOH               is reactant       1.000e+01   1.000e+01  -1.229e-04

------------------------------Surface composition------------------------------

Goe           
	 -7.045e-06  Surface charge, plane 0, eq
	 -4.441e-06  Surface charge, plane 1, eq
	  1.972e-06  Surface charge, plane 2, eq
	 -9.514e-06  Sum of surface charge, all planes, eq

	 -7.053e-03  sigma, plane 0, C/m**2
	 -4.446e-03  sigma, plane 1, C/m**2
	  1.974e-03  sigma, plane 2, C/m**2
	  9.525e-03  sigma, diffuse layer, C/m**2

	 -4.674e-02  psi, plane 0, V
	 -4.033e-02  psi, plane 1, V
	 -3.803e-02  psi, plane 2, V

	  6.168e+00  exp(-F*psi/RT), plane 0
	  4.806e+00  exp(-F*psi/RT), plane 1
	  4.395e+00  exp(-F*psi/RT), plane 2

	  1.100e+00  capacitance 0-1, F/m^2
	  5.000e+00  capacitance 1-2, F/m^2
	  9.639e+01  specific area, m^2/g
	  9.639e+01  m^2 for   1.000e+00 g


Goe_tri       
	  4.320e-04  moles
	                                        Mole                     Log
	Species                    Moles    Fraction    Molality    Molality

	Goe_triO-0.5           2.180e-04       0.505   2.180e-04      -3.662
	Goe_triOH+0.5          2.131e-04       0.493   2.131e-04      -3.671
	Goe_triONa+0.5         8.675e-07       0.002   8.675e-07      -6.062

Goe_uni       
	  5.520e-04  moles
	                                        Mole                     Log
	Species                    Moles    Fraction    Molality    Molality

	Goe_uniOH-0.5          2.775e-04       0.503   2.775e-04      -3.557
	Goe_uniOH2+0.5         2.713e-04       0.491   2.713e-04      -3.567
	Goe_uniOHNa+0.5        1.104e-06       0.002   1.104e-06      -5.957
	Goe_uniOAsO3-2.5       9.836e-07       0.002   9.836e-07      -6.007
	Goe_uniOPO3-2.5        9.389e-07       0.002   9.389e-07      -6.027
	Goe_uni2O2PO2-2        6.067e-08       0.000   6.067e-08      -7.217
	Goe_uni2O2AsO2-2       1.597e-08       0.000   1.597e-08      -7.797
	Goe_uni2O2POOH-        5.236e-11       0.000   5.236e-11     -10.281
	Goe_uni2O2AsOOH-       3.461e-11       0.000   3.461e-11     -10.461

-----------------------------Solution composition------------------------------

	Elements           Molality       Moles

	As                3.797e-10   3.797e-10
	Cl                1.000e-02   1.000e-02
	Na                1.012e-02   1.012e-02
	P                 3.970e-10   3.970e-10

----------------------------Description of solution----------------------------

                                       pH  =  10.000      Charge balance
                                       pe  =   7.951      Adjusted to redox equilibrium
                        Activity of water  =   1.000
                           Ionic strength  =   1.003e-02
                       Mass of water (kg)  =   1.000e+00
                 Total alkalinity (eq/kg)  =   1.114e-04
                    Total carbon (mol/kg)  =   0.000e+00
                       Total CO2 (mol/kg)  =   0.000e+00
                      Temperature (deg C)  =  25.00
                  Electrical balance (eq)  =   9.514e-06
 Percent error, 100*(Cat-|An|)/(Cat+|An|)  =   0.05
                               Iterations  =  34
                                  Total H  = 1.110126e+02
                                  Total O  = 5.550634e+01

----------------------------Distribution of species----------------------------

                                            Log       Log         Log     mole V
   Species          Molality    Activity  Molality  Activity     Gamma   cm3/mol

   OH-             1.108e-04   9.997e-05    -3.955    -4.000    -0.045     (0)  
   H+              1.109e-10   1.000e-10    -9.955   -10.000    -0.045      0.00
   H2O             5.551e+01   9.997e-01     1.744    -0.000     0.000     18.07
As            3.797e-10
   HAsO4-2         3.641e-10   2.409e-10    -9.439    -9.618    -0.179     (0)  
   AsO4-3          1.547e-11   6.108e-12   -10.811   -11.214    -0.404     (0)  
   H2AsO4-         1.530e-13   1.380e-13   -12.815   -12.860    -0.045     (0)  
   H3AsO4          2.409e-21   2.415e-21   -20.618   -20.617     0.001     (0)  
Cl            1.000e-02
   Cl-             9.919e-03   8.946e-03    -2.004    -2.048    -0.045     (0)  
   NaCl            8.082e-05   8.100e-05    -4.092    -4.091     0.001     (0)  
H(0)          1.769e-39
   H2              8.845e-40   8.866e-40   -39.053   -39.052     0.001     (0)  
Na            1.012e-02
   Na+             1.004e-02   9.055e-03    -1.998    -2.043    -0.045     (0)  
   NaCl            8.082e-05   8.100e-05    -4.092    -4.091     0.001     (0)  
   NaOH            5.698e-07   5.711e-07    -6.244    -6.243     0.001     (0)  
O(0)          1.058e-14
   O2              5.288e-15   5.300e-15   -14.277   -14.276     0.001     (0)  
P             3.970e-10
   HPO4-2          3.936e-10   2.604e-10    -9.405    -9.584    -0.179     (0)  
   PO4-3           2.946e-12   1.163e-12   -11.531   -11.934    -0.404     (0)  
   H2PO4-          4.576e-13   4.127e-13   -12.339   -12.384    -0.045     (0)  
   H3PO4           5.816e-21   5.830e-21   -20.235   -20.234     0.001     (0)  
   (H2PO4)2-2      1.150e-25   7.609e-26   -24.939   -25.119    -0.179     (0)  
   P2O7-4          1.346e-26   2.579e-27   -25.871   -26.589    -0.717     (0)  
   HP2O7-3         1.679e-27   6.629e-28   -26.775   -27.179    -0.404     (0)  
   H2P2O7-2        5.022e-31   3.323e-31   -30.299   -30.479    -0.179     (0)  
   H3P2O7-         7.020e-39   6.331e-39   -38.154   -38.199    -0.045     (0)  
   H4P2O7          0.000e+00   0.000e+00   -47.400   -47.399     0.001     (0)  

------------------------------Saturation indices-------------------------------

	Phase               SI   log IAP   log K(298 K,   1 atm)

	Fix_pH          -10.00    -10.00    0.00  H+


------------------
End of simulation.
------------------

------------------------------------
Reading input data for simulation 5.
------------------------------------

	USE solution 1
	USE surface 1
	EQUILIBRIUM_PHASES
	Fix_pH -8 HCl 10
	END
-----------------------------------------
Beginning of batch-reaction calculations.
-----------------------------------------

Reaction step 1.

Using solution 1.	
Using surface 1.	
Using pure phase assemblage 1.	

----------------------------------User print-----------------------------------

Charge, plane 0, eq                      1.7692e-05 
Charge, plane 1, eq                     -4.3889e-06 
Charge, plane 2, eq                      5.9695e-08 
Sigma, plane 0, C/m^2                    1.7712e-02 
Sigma, plane 1, C/m^2                   -4.3937e-03 
Sigma, plane 2, C/m^2                    5.9761e-05 
Psi, plane 0, V                          6.9075e-02 
Psi, plane 1, V                          5.2974e-02 
Psi, plane 2, V                          5.0310e-02 

-------------------------------Phase assemblage--------------------------------

                                                      Moles in assemblage
Phase               SI  log IAP  log K(T, P)   Initial       Final       Delta

Fix_pH           -8.00    -8.00      0.00
	 HCl                is reactant       1.000e+01   1.000e+01  -1.220e-05

------------------------------Surface composition------------------------------

Goe           
	  1.769e-05  Surface charge, plane 0, eq
	 -4.389e-06  Surface charge, plane 1, eq
	  5.970e-08  Surface charge, plane 2, eq
	  1.336e-05  Sum of surface charge, all planes, eq

	  1.771e-02  sigma, plane 0, C/m**2
	 -4.394e-03  sigma, plane 1, C/m**2
	  5.976e-05  sigma, plane 2, C/m**2
	 -1.338e-02  sigma, diffuse layer, C/m**2

	  6.908e-02  psi, plane 0, V
	  5.297e-02  psi, plane 1, V
	  5.031e-02  psi, plane 2, V

	  6.797e-02  exp(-F*psi/RT), plane 0
	  1.272e-01  exp(-F*psi/RT), plane 1
	  1.411e-01  exp(-F*psi/RT), plane 2

	  1.100e+00  capacitance 0-1, F/m^2
	  5.000e+00  capacitance 1-2, F/m^2
	  9.639e+01  specific area, m^2/g
	  9.639e+01  m^2 for   1.000e+00 g


Goe_tri       
	  4.320e-04  moles
	                                        Mole                     Log
	Species                    Moles    Fraction    Molality    Molality

	Goe_triOH+0.5          2.240e-04       0.519   2.240e-04      -3.650
	Goe_triO-0.5           2.080e-04       0.481   2.080e-04      -3.682
	Goe_triONa+0.5         2.627e-08       0.000   2.627e-08      -7.581

Goe_uni       
	  5.520e-04  moles
	                                        Mole                     Log
	Species                    Moles    Fraction    Molality    Molality

	Goe_uniOH2+0.5         2.851e-04       0.517   2.851e-04      -3.545
	Goe_uniOH-0.5          2.647e-04       0.480   2.647e-04      -3.577
	Goe_uniOAsO3-2.5       9.680e-07       0.002   9.680e-07      -6.014
	Goe_uniOPO3-2.5        8.840e-07       0.002   8.840e-07      -6.054
	Goe_uni2O2PO2-2        1.158e-07       0.000   1.158e-07      -6.936
	Goe_uniOHNa+0.5        3.343e-08       0.000   3.343e-08      -7.476
	Goe_uni2O2AsO2-2       3.186e-08       0.000   3.186e-08      -7.497
	Goe_uni2O2POOH-        1.707e-10       0.000   1.707e-10      -9.768
	Goe_uni2O2AsOOH-       1.179e-10       0.000   1.179e-10      -9.928

-----------------------------Solution composition------------------------------

	Elements           Molality       Moles

	As                3.409e-13   3.409e-13
	Cl                1.001e-02   1.001e-02
	Na                1.000e-02   1.000e-02
	P                 3.776e-13   3.776e-13

----------------------------Description of solution----------------------------

                                       pH  =   8.000      Charge balance
                                       pe  =   9.978      Adjusted to redox equilibrium
                        Activity of water  =   1.000
                           Ionic strength  =   9.927e-03
                       Mass of water (kg)  =   1.000e+00
                 Total alkalinity (eq/kg)  =   1.102e-06
                    Total carbon (mol/kg)  =   0.000e+00
                       Total CO2 (mol/kg)  =   0.000e+00
                      Temperature (deg C)  =  25.00
                  Electrical balance (eq)  =  -1.336e-05
 Percent error, 100*(Cat-|An|)/(Cat+|An|)  =  -0.07
                               Iterations  =  25
                                  Total H  = 1.110124e+02
                                  Total O  = 5.550622e+01

----------------------------Distribution of species----------------------------

                                            Log       Log         Log     mole V
   Species          Molality    Activity  Molality  Activity     Gamma   cm3/mol

   OH-             1.108e-06   9.997e-07    -5.956    -6.000    -0.045     (0)  
   H+              1.108e-08   1.000e-08    -7.955    -8.000    -0.045      0.00
   H2O             5.551e+01   9.997e-01     1.744    -0.000     0.000     18.07
As            3.409e-13
   HAsO4-2         3.270e-13   2.168e-13   -12.485   -12.664    -0.179     (0)  
   H2AsO4-         1.376e-14   1.242e-14   -13.861   -13.906    -0.045     (0)  
   AsO4-3          1.386e-16   5.496e-17   -15.858   -16.260    -0.402     (0)  
   H3AsO4          2.168e-20   2.173e-20   -19.664   -19.663     0.001     (0)  
Cl            1.001e-02
   Cl-             9.932e-03   8.962e-03    -2.003    -2.048    -0.045     (0)  
   NaCl            8.004e-05   8.022e-05    -4.097    -4.096     0.001     (0)  
H(0)          1.565e-39
   H2              7.826e-40   7.844e-40   -39.106   -39.105     0.001     (0)  
Na            1.000e-02
   Na+             9.920e-03   8.951e-03    -2.003    -2.048    -0.045     (0)  
   NaCl            8.004e-05   8.022e-05    -4.097    -4.096     0.001     (0)  
   NaOH            5.633e-09   5.646e-09    -8.249    -8.248     0.001     (0)  
O(0)          1.351e-14
   O2              6.755e-15   6.771e-15   -14.170   -14.169     0.001     (0)  
P             3.776e-13
   HPO4-2          3.382e-13   2.242e-13   -12.471   -12.649    -0.179     (0)  
   H2PO4-          3.938e-14   3.553e-14   -13.405   -13.449    -0.045     (0)  
   PO4-3           2.525e-17   1.001e-17   -16.598   -16.999    -0.402     (0)  
   H3PO4           5.008e-20   5.019e-20   -19.300   -19.299     0.001     (0)  
   (H2PO4)2-2      8.507e-28   5.640e-28   -27.070   -27.249    -0.179     (0)  
   HP2O7-3         1.239e-31   4.914e-32   -30.907   -31.309    -0.402     (0)  
   P2O7-4          9.896e-33   1.912e-33   -32.005   -32.719    -0.714     (0)  
   H2P2O7-2        3.715e-33   2.463e-33   -32.430   -32.609    -0.179     (0)  
   H3P2O7-         5.201e-39   4.693e-39   -38.284   -38.329    -0.045     (0)  
   H4P2O7          0.000e+00   0.000e+00   -45.530   -45.529     0.001     (0)  

------------------------------Saturation indices-------------------------------

	Phase               SI   log IAP   log K(298 K,   1 atm)

	Fix_pH           -8.00     -8.00    0.00  H+


------------------
End of simulation.
------------------

------------------------------------
Reading input data for simulation 6.
------------------------------------

	USE solution 1
	USE surface 1
	EQUILIBRIUM_PHASES
	Fix_pH -6 HCl 10
	END
-----------------------------------------
Beginning of batch-reaction calculations.
-----------------------------------------

Reaction step 1.

Using solution 1.	
Using surface 1.	
Using pure phase assemblage 1.	

----------------------------------User print-----------------------------------

Charge, plane 0, eq                      6.0356e-05 
Charge, plane 1, eq                     -4.1934e-06 
Charge, plane 2, eq                      4.0947e-09 
Sigma, plane 0, C/m^2                    6.0423e-02 
Sigma, plane 1, C/m^2                   -4.1980e-03 
Sigma, plane 2, C/m^2                    4.0992e-06 
Psi, plane 0, V                          1.8288e-01 
Psi, plane 1, V                          1.2795e-01 
Psi, plane 2, V                          1.1671e-01 

-------------------------------Phase assemblage--------------------------------

                                                      Moles in assemblage
Phase               SI  log IAP  log K(T, P)   Initial       Final       Delta

Fix_pH           -6.00    -6.00      0.00
	 HCl                is reactant       1.000e+01   1.000e+01  -5.726e-05

------------------------------Surface composition------------------------------

Goe           
	  6.036e-05  Surface charge, plane 0, eq
	 -4.193e-06  Surface charge, plane 1, eq
	  4.095e-09  Surface charge, plane 2, eq
	  5.617e-05  Sum of surface charge, all planes, eq

	  6.042e-02  sigma, plane 0, C/m**2
	 -4.198e-03  sigma, plane 1, C/m**2
	  4.099e-06  sigma, plane 2, C/m**2
	 -5.623e-02  sigma, diffuse layer, C/m**2

	  1.829e-01  psi, plane 0, V
	  1.280e-01  psi, plane 1, V
	  1.167e-01  psi, plane 2, V

	  8.099e-04  exp(-F*psi/RT), plane 0
	  6.871e-03  exp(-F*psi/RT), plane 1
	  1.064e-02  exp(-F*psi/RT), plane 2

	  1.100e+00  capacitance 0-1, F/m^2
	  5.000e+00  capacitance 1-2, F/m^2
	  9.639e+01  specific area, m^2/g
	  9.639e+01  m^2 for   1.000e+00 g


Goe_tri       
	  4.320e-04  moles
	                                        Mole                     Log
	Species                    Moles    Fraction    Molality    Molality

	Goe_triOH+0.5          2.428e-04       0.562   2.428e-04      -3.615
	Goe_triO-0.5           1.892e-04       0.438   1.892e-04      -3.723
	Goe_triONa+0.5         1.802e-09       0.000   1.802e-09      -8.744

Goe_uni       
	  5.520e-04  moles
	                                        Mole                     Log
	Species                    Moles    Fraction    Molality    Molality

	Goe_uniOH2+0.5         3.089e-04       0.560   3.089e-04      -3.510
	Goe_uniOH-0.5          2.407e-04       0.436   2.407e-04      -3.619
	Goe_uniOAsO3-2.5       8.994e-07       0.002   8.994e-07      -6.046
	Goe_uniOPO3-2.5        6.931e-07       0.001   6.931e-07      -6.159
	Goe_uni2O2PO2-2        3.057e-07       0.001   3.057e-07      -6.515
	Goe_uni2O2AsO2-2       9.964e-08       0.000   9.964e-08      -7.002
	Goe_uniOHNa+0.5        2.293e-09       0.000   2.293e-09      -8.640
	Goe_uni2O2POOH-        1.143e-09       0.000   1.143e-09      -8.942
	Goe_uni2O2AsOOH-       9.358e-10       0.000   9.358e-10      -9.029

-----------------------------Solution composition------------------------------

	Elements           Molality       Moles

	As                7.411e-15   7.411e-15
	Cl                1.006e-02   1.006e-02
	Na                1.000e-02   1.000e-02
	P                 1.570e-14   1.570e-14

----------------------------Description of solution----------------------------

                                       pH  =   6.000      Charge balance
                                       pe  =  11.915      Adjusted to redox equilibrium
                        Activity of water  =   1.000
                           Ionic strength  =   9.949e-03
                       Mass of water (kg)  =   1.000e+00
                 Total alkalinity (eq/kg)  =  -1.097e-06
                    Total carbon (mol/kg)  =   0.000e+00
                       Total CO2 (mol/kg)  =   0.000e+00
                      Temperature (deg C)  =  25.00
                  Electrical balance (eq)  =  -5.617e-05
 Percent error, 100*(Cat-|An|)/(Cat+|An|)  =  -0.28
                               Iterations  =  28
                                  Total H  = 1.110124e+02
                                  Total O  = 5.550622e+01

----------------------------Distribution of species----------------------------

                                            Log       Log         Log     mole V
   Species          Molality    Activity  Molality  Activity     Gamma   cm3/mol

   H+              1.108e-06   1.000e-06    -5.955    -6.000    -0.045      0.00
   OH-             1.108e-08   9.997e-09    -7.955    -8.000    -0.045     (0)  
   H2O             5.551e+01   9.997e-01     1.744    -0.000     0.000     18.07
As            7.411e-15
   H2AsO4-         5.987e-15   5.402e-15   -14.223   -14.267    -0.045     (0)  
   HAsO4-2         1.423e-15   9.431e-16   -14.847   -15.025    -0.179     (0)  
   H3AsO4          9.431e-19   9.453e-19   -18.025   -18.024     0.001     (0)  
   AsO4-3          6.034e-21   2.391e-21   -20.219   -20.621    -0.402     (0)  
Cl            1.006e-02
   Cl-             9.977e-03   9.002e-03    -2.001    -2.046    -0.045     (0)  
   NaCl            8.038e-05   8.056e-05    -4.095    -4.094     0.001     (0)  
H(0)          2.094e-39
   H2              1.047e-39   1.050e-39   -38.980   -38.979     0.001     (0)  
Na            1.000e-02
   Na+             9.920e-03   8.950e-03    -2.004    -2.048    -0.045     (0)  
   NaCl            8.038e-05   8.056e-05    -4.095    -4.094     0.001     (0)  
   NaOH            5.632e-11   5.645e-11   -10.249   -10.248     0.001     (0)  
O(0)          7.547e-15
   O2              3.773e-15   3.782e-15   -14.423   -14.422     0.001     (0)  
P             1.570e-14
   H2PO4-          1.446e-14   1.304e-14   -13.840   -13.885    -0.045     (0)  
   HPO4-2          1.242e-15   8.230e-16   -14.906   -15.085    -0.179     (0)  
   H3PO4           1.838e-18   1.843e-18   -17.736   -17.735     0.001     (0)  
   PO4-3           9.278e-22   3.676e-22   -21.033   -21.435    -0.402     (0)  
   (H2PO4)2-2      1.147e-28   7.600e-29   -27.940   -28.119    -0.179     (0)  
   H2P2O7-2        5.008e-34   3.319e-34   -33.300   -33.479    -0.179     (0)  
   HP2O7-3         1.671e-34   6.622e-35   -33.777   -34.179    -0.402     (0)  
   P2O7-4          1.336e-37   2.576e-38   -36.874   -37.589    -0.715     (0)  
   H3P2O7-         7.009e-38   6.324e-38   -37.154   -37.199    -0.045     (0)  
   H4P2O7          0.000e+00   0.000e+00   -42.400   -42.399     0.001     (0)  

------------------------------Saturation indices-------------------------------

	Phase               SI   log IAP   log K(298 K,   1 atm)

	Fix_pH           -6.00     -6.00    0.00  H+


------------------
End of simulation.
------------------

------------------------------------
Reading input data for simulation 7.
------------------------------------

	USE solution 1
	USE surface 1
	EQUILIBRIUM_PHASES
	Fix_pH -4 HCl 10
	END
-----------------------------------------
Beginning of batch-reaction calculations.
-----------------------------------------

Reaction step 1.

Using solution 1.	
Using surface 1.	
Using pure phase assemblage 1.	

----------------------------------User print-----------------------------------

Charge, plane 0, eq                      1.2539e-04 
Charge, plane 1, eq                     -3.6181e-06 
Charge, plane 2, eq                      7.6323e-10 
Sigma, plane 0, C/m^2                    1.2553e-01 
Sigma, plane 1, C/m^2                   -3.6221e-03 
Sigma, plane 2, C/m^2                    7.6408e-07 
Psi, plane 0, V                          2.9409e-01 
Psi, plane 1, V                          1.7998e-01 
Psi, plane 2, V                          1.5559e-01 

-------------------------------Phase assemblage--------------------------------

                                                      Moles in assemblage
Phase               SI  log IAP  log K(T, P)   Initial       Final       Delta

Fix_pH           -4.00    -4.00      0.00
	 HCl                is reactant       1.000e+01   1.000e+01  -2.327e-04

------------------------------Surface composition------------------------------

Goe           
	  1.254e-04  Surface charge, plane 0, eq
	 -3.618e-06  Surface charge, plane 1, eq
	  7.632e-10  Surface charge, plane 2, eq
	  1.218e-04  Sum of surface charge, all planes, eq

	  1.255e-01  sigma, plane 0, C/m**2
	 -3.622e-03  sigma, plane 1, C/m**2
	  7.641e-07  sigma, plane 2, C/m**2
	 -1.219e-01  sigma, diffuse layer, C/m**2

	  2.941e-01  psi, plane 0, V
	  1.800e-01  psi, plane 1, V
	  1.556e-01  psi, plane 2, V

	  1.068e-05  exp(-F*psi/RT), plane 0
	  9.070e-04  exp(-F*psi/RT), plane 1
	  2.343e-03  exp(-F*psi/RT), plane 2

	  1.100e+00  capacitance 0-1, F/m^2
	  5.000e+00  capacitance 1-2, F/m^2
	  9.639e+01  specific area, m^2/g
	  9.639e+01  m^2 for   1.000e+00 g


Goe_tri       
	  4.320e-04  moles
	                                        Mole                     Log
	Species                    Moles    Fraction    Molality    Molality

	Goe_triOH+0.5          2.716e-04       0.629   2.716e-04      -3.566
	Goe_triO-0.5           1.604e-04       0.371   1.604e-04      -3.795
	Goe_triONa+0.5         3.362e-10       0.000   3.362e-10      -9.473

Goe_uni       
	  5.520e-04  moles
	                                        Mole                     Log
	Species                    Moles    Fraction    Molality    Molality

	Goe_uniOH2+0.5         3.450e-04       0.625   3.450e-04      -3.462
	Goe_uniOH-0.5          2.038e-04       0.369   2.038e-04      -3.691
	Goe_uni2O2PO2-2        7.266e-07       0.003   7.266e-07      -6.139
	Goe_uniOAsO3-2.5       5.802e-07       0.001   5.802e-07      -6.236
	Goe_uni2O2AsO2-2       4.040e-07       0.001   4.040e-07      -6.394
	Goe_uniOPO3-2.5        2.621e-07       0.000   2.621e-07      -6.582
	Goe_uni2O2AsOOH-       1.583e-08       0.000   1.583e-08      -7.801
	Goe_uni2O2POOH-        1.133e-08       0.000   1.133e-08      -7.946
	Goe_uniOHNa+0.5        4.271e-10       0.000   4.271e-10      -9.369

-----------------------------Solution composition------------------------------

	Elements           Molality       Moles

	As                1.440e-14   1.440e-14
	Cl                1.023e-02   1.023e-02
	Na                1.000e-02   1.000e-02
	P                 2.029e-14   2.029e-14

----------------------------Description of solution----------------------------

                                       pH  =   4.000      Charge balance
                                       pe  =  14.270      Adjusted to redox equilibrium
                        Activity of water  =   1.000
                           Ionic strength  =   1.009e-02
                       Mass of water (kg)  =   1.000e+00
                 Total alkalinity (eq/kg)  =  -1.109e-04
                    Total carbon (mol/kg)  =   0.000e+00
                       Total CO2 (mol/kg)  =   0.000e+00
                      Temperature (deg C)  =  25.00
                  Electrical balance (eq)  =  -1.218e-04
 Percent error, 100*(Cat-|An|)/(Cat+|An|)  =  -0.60
                               Iterations  =  19
                                  Total H  = 1.110126e+02
                                  Total O  = 5.550622e+01

----------------------------Distribution of species----------------------------

                                            Log       Log         Log     mole V
   Species          Molality    Activity  Molality  Activity     Gamma   cm3/mol

   H+              1.109e-04   1.000e-04    -3.955    -4.000    -0.045      0.00
   OH-             1.109e-10   9.997e-11    -9.955   -10.000    -0.045     (0)  
   H2O             5.551e+01   9.997e-01     1.744    -0.000     0.000     18.07
As            1.440e-14
   H2AsO4-         1.414e-14   1.275e-14   -13.849   -13.894    -0.045     (0)  
   H3AsO4          2.227e-16   2.232e-16   -15.652   -15.651     0.001     (0)  
   HAsO4-2         3.368e-17   2.227e-17   -16.473   -16.652    -0.180     (0)  
   AsO4-3          1.433e-24   5.645e-25   -23.844   -24.248    -0.405     (0)  
Cl            1.023e-02
   Cl-             1.015e-02   9.153e-03    -1.993    -2.038    -0.045     (0)  
   NaCl            8.167e-05   8.186e-05    -4.088    -4.087     0.001     (0)  
H(0)          4.072e-40
   H2              2.036e-40   2.041e-40   -39.691   -39.690     0.001     (0)  
Na            1.000e-02
   Na+             9.918e-03   8.943e-03    -2.004    -2.049    -0.045     (0)  
   NaCl            8.167e-05   8.186e-05    -4.088    -4.087     0.001     (0)  
   NaOH            5.628e-13   5.641e-13   -12.250   -12.249     0.001     (0)  
O(0)          1.996e-13
   O2              9.981e-14   1.000e-13   -13.001   -13.000     0.001     (0)  
P             2.029e-14
   H2PO4-          2.002e-14   1.805e-14   -13.699   -13.743    -0.045     (0)  
   H3PO4           2.544e-16   2.550e-16   -15.594   -15.593     0.001     (0)  
   HPO4-2          1.723e-17   1.139e-17   -16.764   -16.943    -0.180     (0)  
   PO4-3           1.291e-25   5.088e-26   -24.889   -25.293    -0.405     (0)  
   (H2PO4)2-2      2.202e-28   1.456e-28   -27.657   -27.837    -0.180     (0)  
   H2P2O7-2        9.616e-34   6.357e-34   -33.017   -33.197    -0.180     (0)  
   H3P2O7-         1.343e-35   1.211e-35   -34.872   -34.917    -0.045     (0)  
   HP2O7-3         3.219e-36   1.268e-36   -35.492   -35.897    -0.405     (0)  
   H4P2O7          7.625e-39   7.642e-39   -38.118   -38.117     0.001     (0)  
   P2O7-4          0.000e+00   0.000e+00   -40.588   -41.307    -0.719     (0)  

------------------------------Saturation indices-------------------------------

	Phase               SI   log IAP   log K(298 K,   1 atm)

	Fix_pH           -4.00     -4.00    0.00  H+


------------------
End of simulation.
------------------

------------------------------------
Reading input data for simulation 8.
------------------------------------

	SURFACE
		Goe_uniOHH0.5 .000552 96.387 1  # 1.1   5
		Goe_triOH0.5  .000432
			  capacitances	  1.1 5
		donnan
		cd_music
	END
------------------
End of simulation.
------------------

------------------------------------
Reading input data for simulation 9.
------------------------------------

	USE solution 1
	USE surface 1
	EQUILIBRIUM_PHASES
	Fix_pH -10 NaOH 10
	END
-----------------------------------------
Beginning of batch-reaction calculations.
-----------------------------------------

Reaction step 1.

Using solution 1.	
Using surface 1.	
Using pure phase assemblage 1.	

----------------------------------User print-----------------------------------

Charge, plane 0, eq                     -7.0380e-06 
Charge, plane 1, eq                     -4.4407e-06 
Charge, plane 2, eq                      1.9694e-06 
Sigma, plane 0, C/m^2                   -7.0458e-03 
Sigma, plane 1, C/m^2                   -4.4456e-03 
Sigma, plane 2, C/m^2                    1.9716e-03 
Psi, plane 0, V                         -4.6744e-02 
Psi, plane 1, V                         -4.0339e-02 
Psi, plane 2, V                         -3.8041e-02 

-------------------------------Phase assemblage--------------------------------

                                                      Moles in assemblage
Phase               SI  log IAP  log K(T, P)   Initial       Final       Delta

Fix_pH          -10.00   -10.00      0.00
	 NaOH               is reactant       1.000e+01   1.000e+01  -1.229e-04

------------------------------Surface composition------------------------------

Goe           
	 -6.239e-19  Surface + diffuse layer charge, eq

	 -7.038e-06  Surface charge, plane 0, eq
	 -4.441e-06  Surface charge, plane 1, eq
	  1.969e-06  Surface charge, plane 2, eq
	 -9.509e-06  Sum of surface charge, all planes, eq

	 -7.046e-03  sigma, plane 0, C/m**2
	 -4.446e-03  sigma, plane 1, C/m**2
	  1.972e-03  sigma, plane 2, C/m**2
	  9.520e-03  sigma, diffuse layer, C/m**2

	 -4.674e-02  psi, plane 0, V
	 -4.034e-02  psi, plane 1, V
	 -3.804e-02  psi, plane 2, V

	  6.169e+00  exp(-F*psi/RT), plane 0
	  4.807e+00  exp(-F*psi/RT), plane 1
	  4.396e+00  exp(-F*psi/RT), plane 2

	  1.100e+00  capacitance 0-1, F/m^2
	  5.000e+00  capacitance 1-2, F/m^2
	  9.639e+01  specific area, m^2/g
	  9.639e+01  m^2 for   1.000e+00 g

	Water in diffuse layer: 9.639e-04 kg, 100.0% of total DDL-water.

	Total moles in diffuse layer (excluding water), Donnan calculation 

	Element       	     Moles
	As            	  1.3971e-13
	Cl            	  6.0251e-06
	H             	  6.7042e-08
	Na            	  1.5601e-05
	O             	  6.7043e-08
	P             	  1.4799e-13

Goe_tri       
	  4.320e-04  moles
	                                        Mole                     Log
	Species                    Moles    Fraction    Molality    Molality

	Goe_triO-0.5           2.180e-04       0.505   2.180e-04      -3.662
	Goe_triOH+0.5          2.131e-04       0.493   2.131e-04      -3.671
	Goe_triONa+0.5         8.665e-07       0.002   8.665e-07      -6.062

Goe_uni       
	  5.520e-04  moles
	                                        Mole                     Log
	Species                    Moles    Fraction    Molality    Molality

	Goe_uniOH-0.5          2.775e-04       0.503   2.775e-04      -3.557
	Goe_uniOH2+0.5         2.713e-04       0.492   2.713e-04      -3.567
	Goe_uniOHNa+0.5        1.103e-06       0.002   1.103e-06      -5.957
	Goe_uniOAsO3-2.5       9.836e-07       0.002   9.836e-07      -6.007
	Goe_uniOPO3-2.5        9.389e-07       0.002   9.389e-07      -6.027
	Goe_uni2O2PO2-2        6.068e-08       0.000   6.068e-08      -7.217
	Goe_uni2O2AsO2-2       1.597e-08       0.000   1.597e-08      -7.797
	Goe_uni2O2POOH-        5.237e-11       0.000   5.237e-11     -10.281
	Goe_uni2O2AsOOH-       3.462e-11       0.000   3.462e-11     -10.461

-----------------------------Solution composition------------------------------

	Elements           Molality       Moles

	As                3.799e-10   3.799e-10
	Cl                9.994e-03   9.994e-03
	Na                1.011e-02   1.011e-02
	P                 3.971e-10   3.971e-10

----------------------------Description of solution----------------------------

                                       pH  =  10.000      Charge balance
                                       pe  =   8.600      Adjusted to redox equilibrium
                        Activity of water  =   1.000
                           Ionic strength  =   1.002e-02
                       Mass of water (kg)  =   1.000e+00
                 Total alkalinity (eq/kg)  =   1.114e-04
                    Total carbon (mol/kg)  =   0.000e+00
                       Total CO2 (mol/kg)  =   0.000e+00
                      Temperature (deg C)  =  25.00
                  Electrical balance (eq)  =   7.844e-19
 Percent error, 100*(Cat-|An|)/(Cat+|An|)  =   0.00
                               Iterations  =   1
                                  Total H  = 1.110126e+02
                                  Total O  = 5.550634e+01

----------------------------Distribution of species----------------------------

                                            Log       Log         Log     mole V
   Species          Molality    Activity  Molality  Activity     Gamma   cm3/mol

   OH-             1.108e-04   9.997e-05    -3.955    -4.000    -0.045     (0)  
   H+              1.109e-10   1.000e-10    -9.955   -10.000    -0.045      0.00
   H2O             5.551e+01   9.997e-01     1.744    -0.000     0.000     18.07
As            3.799e-10
   HAsO4-2         3.643e-10   2.411e-10    -9.439    -9.618    -0.179     (0)  
   AsO4-3          1.547e-11   6.112e-12   -10.810   -11.214    -0.403     (0)  
   H2AsO4-         1.531e-13   1.381e-13   -12.815   -12.860    -0.045     (0)  
   H3AsO4          2.411e-21   2.416e-21   -20.618   -20.617     0.001     (0)  
Cl            9.994e-03
   Cl-             9.913e-03   8.941e-03    -2.004    -2.049    -0.045     (0)  
   NaCl            8.065e-05   8.084e-05    -4.093    -4.092     0.001     (0)  
H(0)          0.000e+00
   H2              0.000e+00   0.000e+00   -40.351   -40.350     0.001     (0)  
Na            1.011e-02
   Na+             1.002e-02   9.041e-03    -1.999    -2.044    -0.045     (0)  
   NaCl            8.065e-05   8.084e-05    -4.093    -4.092     0.001     (0)  
   NaOH            5.690e-07   5.703e-07    -6.245    -6.244     0.001     (0)  
O(0)          4.161e-12
   O2              2.081e-12   2.085e-12   -11.682   -11.681     0.001     (0)  
P             3.971e-10
   HPO4-2          3.937e-10   2.606e-10    -9.405    -9.584    -0.179     (0)  
   PO4-3           2.946e-12   1.164e-12   -11.531   -11.934    -0.403     (0)  
   H2PO4-          4.579e-13   4.130e-13   -12.339   -12.384    -0.045     (0)  
   H3PO4           5.820e-21   5.834e-21   -20.235   -20.234     0.001     (0)  
   (H2PO4)2-2      1.151e-25   7.618e-26   -24.939   -25.118    -0.179     (0)  
   P2O7-4          1.346e-26   2.582e-27   -25.871   -26.588    -0.717     (0)  
   HP2O7-3         1.680e-27   6.638e-28   -26.775   -27.178    -0.403     (0)  
   H2P2O7-2        5.027e-31   3.327e-31   -30.299   -30.478    -0.179     (0)  
   H3P2O7-         7.028e-39   6.339e-39   -38.153   -38.198    -0.045     (0)  
   H4P2O7          0.000e+00   0.000e+00   -47.399   -47.398     0.001     (0)  

------------------------------Saturation indices-------------------------------

	Phase               SI   log IAP   log K(298 K,   1 atm)

	Fix_pH          -10.00    -10.00    0.00  H+


------------------
End of simulation.
------------------

-------------------------------------
Reading input data for simulation 10.
-------------------------------------

	USE solution 1
	USE surface 1
	EQUILIBRIUM_PHASES
	Fix_pH -8 HCl 10
	END
-----------------------------------------
Beginning of batch-reaction calculations.
-----------------------------------------

Reaction step 1.

Using solution 1.	
Using surface 1.	
Using pure phase assemblage 1.	

----------------------------------User print-----------------------------------

Charge, plane 0, eq                      1.7683e-05 
Charge, plane 1, eq                     -4.3889e-06 
Charge, plane 2, eq                      5.9646e-08 
Sigma, plane 0, C/m^2                    1.7703e-02 
Sigma, plane 1, C/m^2                   -4.3937e-03 
Sigma, plane 2, C/m^2                    5.9712e-05 
Psi, plane 0, V                          6.9076e-02 
Psi, plane 1, V                          5.2982e-02 
Psi, plane 2, V                          5.0321e-02 

-------------------------------Phase assemblage--------------------------------

                                                      Moles in assemblage
Phase               SI  log IAP  log K(T, P)   Initial       Final       Delta

Fix_pH           -8.00    -8.00      0.00
	 HCl                is reactant       1.000e+01   1.000e+01  -1.219e-05

------------------------------Surface composition------------------------------

Goe           
	 -4.203e-20  Surface + diffuse layer charge, eq

	  1.768e-05  Surface charge, plane 0, eq
	 -4.389e-06  Surface charge, plane 1, eq
	  5.965e-08  Surface charge, plane 2, eq
	  1.335e-05  Sum of surface charge, all planes, eq

	  1.770e-02  sigma, plane 0, C/m**2
	 -4.394e-03  sigma, plane 1, C/m**2
	  5.971e-05  sigma, plane 2, C/m**2
	 -1.337e-02  sigma, diffuse layer, C/m**2

	  6.908e-02  psi, plane 0, V
	  5.298e-02  psi, plane 1, V
	  5.032e-02  psi, plane 2, V

	  6.797e-02  exp(-F*psi/RT), plane 0
	  1.272e-01  exp(-F*psi/RT), plane 1
	  1.410e-01  exp(-F*psi/RT), plane 2

	  1.100e+00  capacitance 0-1, F/m^2
	  5.000e+00  capacitance 1-2, F/m^2
	  9.639e+01  specific area, m^2/g
	  9.639e+01  m^2 for   1.000e+00 g

	Water in diffuse layer: 9.639e-04 kg, 100.0% of total DDL-water.

	Total moles in diffuse layer (excluding water), Donnan calculation 

	Element       	     Moles
	As            	  1.1855e-15
	Cl            	  1.8410e-05
	H             	  2.0596e-09
	Na            	  5.0582e-06
	O             	  2.0540e-09
	P             	  1.2716e-15

Goe_tri       
	  4.320e-04  moles
	                                        Mole                     Log
	Species                    Moles    Fraction    Molality    Molality

	Goe_triOH+0.5          2.240e-04       0.519   2.240e-04      -3.650
	Goe_triO-0.5           2.080e-04       0.481   2.080e-04      -3.682
	Goe_triONa+0.5         2.624e-08       0.000   2.624e-08      -7.581

Goe_uni       
	  5.520e-04  moles
	                                        Mole                     Log
	Species                    Moles    Fraction    Molality    Molality

	Goe_uniOH2+0.5         2.851e-04       0.517   2.851e-04      -3.545
	Goe_uniOH-0.5          2.647e-04       0.480   2.647e-04      -3.577
	Goe_uniOAsO3-2.5       9.680e-07       0.002   9.680e-07      -6.014
	Goe_uniOPO3-2.5        8.840e-07       0.002   8.840e-07      -6.054
	Goe_uni2O2PO2-2        1.158e-07       0.000   1.158e-07      -6.936
	Goe_uniOHNa+0.5        3.340e-08       0.000   3.340e-08      -7.476
	Goe_uni2O2AsO2-2       3.186e-08       0.000   3.186e-08      -7.497
	Goe_uni2O2POOH-        1.706e-10       0.000   1.706e-10      -9.768
	Goe_uni2O2AsOOH-       1.179e-10       0.000   1.179e-10      -9.928

-----------------------------Solution composition------------------------------

	Elements           Molality       Moles

	As                3.406e-13   3.406e-13
	Cl                9.994e-03   9.994e-03
	Na                9.995e-03   9.995e-03
	P                 3.772e-13   3.772e-13

----------------------------Description of solution----------------------------

                                       pH  =   8.000      Charge balance
                                       pe  =   9.914      Adjusted to redox equilibrium
                        Activity of water  =   1.000
                           Ionic strength  =   9.915e-03
                       Mass of water (kg)  =   1.000e+00
                 Total alkalinity (eq/kg)  =   1.102e-06
                    Total carbon (mol/kg)  =   0.000e+00
                       Total CO2 (mol/kg)  =   0.000e+00
                      Temperature (deg C)  =  25.00
                  Electrical balance (eq)  =  -5.881e-18
 Percent error, 100*(Cat-|An|)/(Cat+|An|)  =  -0.00
                               Iterations  =   1
                                  Total H  = 1.110124e+02
                                  Total O  = 5.550622e+01

----------------------------Distribution of species----------------------------

                                            Log       Log         Log     mole V
   Species          Molality    Activity  Molality  Activity     Gamma   cm3/mol

   OH-             1.108e-06   9.997e-07    -5.956    -6.000    -0.045     (0)  
   H+              1.108e-08   1.000e-08    -7.955    -8.000    -0.045      0.00
   H2O             5.551e+01   9.997e-01     1.744    -0.000     0.000     18.07
As            3.406e-13
   HAsO4-2         3.267e-13   2.166e-13   -12.486   -12.664    -0.178     (0)  
   H2AsO4-         1.375e-14   1.241e-14   -13.862   -13.906    -0.045     (0)  
   AsO4-3          1.384e-16   5.492e-17   -15.859   -16.260    -0.401     (0)  
   H3AsO4          2.166e-20   2.171e-20   -19.664   -19.663     0.001     (0)  
Cl            9.994e-03
   Cl-             9.914e-03   8.946e-03    -2.004    -2.048    -0.045     (0)  
   NaCl            7.986e-05   8.004e-05    -4.098    -4.097     0.001     (0)  
H(0)          2.096e-39
   H2              1.048e-39   1.050e-39   -38.980   -38.979     0.001     (0)  
Na            9.995e-03
   Na+             9.915e-03   8.947e-03    -2.004    -2.048    -0.045     (0)  
   NaCl            7.986e-05   8.004e-05    -4.098    -4.097     0.001     (0)  
   NaOH            5.631e-09   5.643e-09    -8.249    -8.248     0.001     (0)  
O(0)          7.534e-15
   O2              3.767e-15   3.775e-15   -14.424   -14.423     0.001     (0)  
P             3.772e-13
   HPO4-2          3.379e-13   2.240e-13   -12.471   -12.650    -0.178     (0)  
   H2PO4-          3.935e-14   3.551e-14   -13.405   -13.450    -0.045     (0)  
   PO4-3           2.522e-17   1.001e-17   -16.598   -17.000    -0.401     (0)  
   H3PO4           5.004e-20   5.015e-20   -19.301   -19.300     0.001     (0)  
   (H2PO4)2-2      8.493e-28   5.632e-28   -27.071   -27.249    -0.178     (0)  
   HP2O7-3         1.237e-31   4.907e-32   -30.908   -31.309    -0.401     (0)  
   P2O7-4          9.873e-33   1.909e-33   -32.006   -32.719    -0.714     (0)  
   H2P2O7-2        3.708e-33   2.459e-33   -32.431   -32.609    -0.178     (0)  
   H3P2O7-         5.193e-39   4.686e-39   -38.285   -38.329    -0.045     (0)  
   H4P2O7          0.000e+00   0.000e+00   -45.530   -45.529     0.001     (0)  

------------------------------Saturation indices-------------------------------

	Phase               SI   log IAP   log K(298 K,   1 atm)

	Fix_pH           -8.00     -8.00    0.00  H+


------------------
End of simulation.
------------------

-------------------------------------
Reading input data for simulation 11.
-------------------------------------

	USE solution 1
	USE surface 1
	EQUILIBRIUM_PHASES
	Fix_pH -6 HCl 10
	END
-----------------------------------------
Beginning of batch-reaction calculations.
-----------------------------------------

Reaction step 1.

Using solution 1.	
Using surface 1.	
Using pure phase assemblage 1.	

----------------------------------User print-----------------------------------

Charge, plane 0, eq                      6.0288e-05 
Charge, plane 1, eq                     -4.1938e-06 
Charge, plane 2, eq                      4.0821e-09 
Sigma, plane 0, C/m^2                    6.0355e-02 
Sigma, plane 1, C/m^2                   -4.1985e-03 
Sigma, plane 2, C/m^2                    4.0866e-06 
Psi, plane 0, V                          1.8289e-01 
Psi, plane 1, V                          1.2802e-01 
Psi, plane 2, V                          1.1679e-01 

-------------------------------Phase assemblage--------------------------------

                                                      Moles in assemblage
Phase               SI  log IAP  log K(T, P)   Initial       Final       Delta

Fix_pH           -6.00    -6.00      0.00
	 HCl                is reactant       1.000e+01   1.000e+01  -5.719e-05

------------------------------Surface composition------------------------------

Goe           
	 -7.668e-20  Surface + diffuse layer charge, eq

	  6.029e-05  Surface charge, plane 0, eq
	 -4.194e-06  Surface charge, plane 1, eq
	  4.082e-09  Surface charge, plane 2, eq
	  5.610e-05  Sum of surface charge, all planes, eq

	  6.035e-02  sigma, plane 0, C/m**2
	 -4.198e-03  sigma, plane 1, C/m**2
	  4.087e-06  sigma, plane 2, C/m**2
	 -5.616e-02  sigma, diffuse layer, C/m**2

	  1.829e-01  psi, plane 0, V
	  1.280e-01  psi, plane 1, V
	  1.168e-01  psi, plane 2, V

	  8.097e-04  exp(-F*psi/RT), plane 0
	  6.852e-03  exp(-F*psi/RT), plane 1
	  1.061e-02  exp(-F*psi/RT), plane 2

	  1.100e+00  capacitance 0-1, F/m^2
	  5.000e+00  capacitance 1-2, F/m^2
	  9.639e+01  specific area, m^2/g
	  9.639e+01  m^2 for   1.000e+00 g

	Water in diffuse layer: 9.639e-04 kg, 100.0% of total DDL-water.

	Total moles in diffuse layer (excluding water), Donnan calculation 

	Element       	     Moles
	As            	  8.4211e-17
	Cl            	  5.7760e-05
	H             	  2.4152e-10
	Na            	  1.6616e-06
	O             	  6.4476e-11
	P             	  1.2690e-16

Goe_tri       
	  4.320e-04  moles
	                                        Mole                     Log
	Species                    Moles    Fraction    Molality    Molality

	Goe_triOH+0.5          2.428e-04       0.562   2.428e-04      -3.615
	Goe_triO-0.5           1.892e-04       0.438   1.892e-04      -3.723
	Goe_triONa+0.5         1.797e-09       0.000   1.797e-09      -8.746

Goe_uni       
	  5.520e-04  moles
	                                        Mole                     Log
	Species                    Moles    Fraction    Molality    Molality

	Goe_uniOH2+0.5         3.089e-04       0.560   3.089e-04      -3.510
	Goe_uniOH-0.5          2.407e-04       0.436   2.407e-04      -3.619
	Goe_uniOAsO3-2.5       8.996e-07       0.002   8.996e-07      -6.046
	Goe_uniOPO3-2.5        6.936e-07       0.001   6.936e-07      -6.159
	Goe_uni2O2PO2-2        3.053e-07       0.001   3.053e-07      -6.515
	Goe_uni2O2AsO2-2       9.947e-08       0.000   9.947e-08      -7.002
	Goe_uniOHNa+0.5        2.286e-09       0.000   2.286e-09      -8.641
	Goe_uni2O2POOH-        1.140e-09       0.000   1.140e-09      -8.943
	Goe_uni2O2AsOOH-       9.328e-10       0.000   9.328e-10      -9.030

-----------------------------Solution composition------------------------------

	Elements           Molality       Moles

	As                7.366e-15   7.366e-15
	Cl                9.999e-03   9.999e-03
	Na                9.998e-03   9.998e-03
	P                 1.561e-14   1.561e-14

----------------------------Description of solution----------------------------

                                       pH  =   6.000      Charge balance
                                       pe  =  11.914      Adjusted to redox equilibrium
                        Activity of water  =   1.000
                           Ionic strength  =   9.920e-03
                       Mass of water (kg)  =   1.000e+00
                 Total alkalinity (eq/kg)  =  -1.097e-06
                    Total carbon (mol/kg)  =   0.000e+00
                       Total CO2 (mol/kg)  =   0.000e+00
                      Temperature (deg C)  =  25.00
                  Electrical balance (eq)  =  -5.268e-19
 Percent error, 100*(Cat-|An|)/(Cat+|An|)  =  -0.00
                               Iterations  =   1
                                  Total H  = 1.110124e+02
                                  Total O  = 5.550622e+01

----------------------------Distribution of species----------------------------

                                            Log       Log         Log     mole V
   Species          Molality    Activity  Molality  Activity     Gamma   cm3/mol

   H+              1.108e-06   1.000e-06    -5.955    -6.000    -0.045      0.00
   OH-             1.108e-08   9.997e-09    -7.956    -8.000    -0.045     (0)  
   H2O             5.551e+01   9.997e-01     1.744    -0.000     0.000     18.07
As            7.366e-15
   H2AsO4-         5.951e-15   5.370e-15   -14.225   -14.270    -0.045     (0)  
   HAsO4-2         1.414e-15   9.375e-16   -14.850   -15.028    -0.178     (0)  
   H3AsO4          9.375e-19   9.396e-19   -18.028   -18.027     0.001     (0)  
   AsO4-3          5.991e-21   2.377e-21   -20.223   -20.624    -0.402     (0)  
Cl            9.999e-03
   Cl-             9.920e-03   8.951e-03    -2.004    -2.048    -0.045     (0)  
   NaCl            7.993e-05   8.011e-05    -4.097    -4.096     0.001     (0)  
H(0)          2.096e-39
   H2              1.048e-39   1.050e-39   -38.980   -38.979     0.001     (0)  
Na            9.998e-03
   Na+             9.918e-03   8.950e-03    -2.004    -2.048    -0.045     (0)  
   NaCl            7.993e-05   8.011e-05    -4.097    -4.096     0.001     (0)  
   NaOH            5.632e-11   5.645e-11   -10.249   -10.248     0.001     (0)  
O(0)          7.537e-15
   O2              3.769e-15   3.777e-15   -14.424   -14.423     0.001     (0)  
P             1.561e-14
   H2PO4-          1.438e-14   1.297e-14   -13.842   -13.887    -0.045     (0)  
   HPO4-2          1.234e-15   8.185e-16   -14.909   -15.087    -0.178     (0)  
   H3PO4           1.828e-18   1.832e-18   -17.738   -17.737     0.001     (0)  
   PO4-3           9.216e-22   3.656e-22   -21.035   -21.437    -0.402     (0)  
   (H2PO4)2-2      1.134e-28   7.516e-29   -27.946   -28.124    -0.178     (0)  
   H2P2O7-2        4.950e-34   3.282e-34   -33.305   -33.484    -0.178     (0)  
   HP2O7-3         1.651e-34   6.548e-35   -33.782   -34.184    -0.402     (0)  
   P2O7-4          1.318e-37   2.548e-38   -36.880   -37.594    -0.714     (0)  
   H3P2O7-         6.930e-38   6.254e-38   -37.159   -37.204    -0.045     (0)  
   H4P2O7          0.000e+00   0.000e+00   -42.405   -42.404     0.001     (0)  

------------------------------Saturation indices-------------------------------

	Phase               SI   log IAP   log K(298 K,   1 atm)

	Fix_pH           -6.00     -6.00    0.00  H+


------------------
End of simulation.
------------------

-------------------------------------
Reading input data for simulation 12.
-------------------------------------

	USE solution 1
	USE surface 1
	EQUILIBRIUM_PHASES
	Fix_pH -4 HCl 10
	END
-----------------------------------------
Beginning of batch-reaction calculations.
-----------------------------------------

Reaction step 1.

Using solution 1.	
Using surface 1.	
Using pure phase assemblage 1.	

----------------------------------User print-----------------------------------

Charge, plane 0, eq                      1.2520e-04 
Charge, plane 1, eq                     -3.6200e-06 
Charge, plane 2, eq                      7.5706e-10 
Sigma, plane 0, C/m^2                    1.2534e-01 
Sigma, plane 1, C/m^2                   -3.6240e-03 
Sigma, plane 2, C/m^2                    7.5790e-07 
Psi, plane 0, V                          2.9411e-01 
Psi, plane 1, V                          1.8017e-01 
Psi, plane 2, V                          1.5582e-01 

-------------------------------Phase assemblage--------------------------------

                                                      Moles in assemblage
Phase               SI  log IAP  log K(T, P)   Initial       Final       Delta

Fix_pH           -4.00    -4.00      0.00
	 HCl                is reactant       1.000e+01   1.000e+01  -2.325e-04

------------------------------Surface composition------------------------------

Goe           
	  3.676e-19  Surface + diffuse layer charge, eq

	  1.252e-04  Surface charge, plane 0, eq
	 -3.620e-06  Surface charge, plane 1, eq
	  7.571e-10  Surface charge, plane 2, eq
	  1.216e-04  Sum of surface charge, all planes, eq

	  1.253e-01  sigma, plane 0, C/m**2
	 -3.624e-03  sigma, plane 1, C/m**2
	  7.579e-07  sigma, plane 2, C/m**2
	 -1.217e-01  sigma, diffuse layer, C/m**2

	  2.941e-01  psi, plane 0, V
	  1.802e-01  psi, plane 1, V
	  1.558e-01  psi, plane 2, V

	  1.067e-05  exp(-F*psi/RT), plane 0
	  9.003e-04  exp(-F*psi/RT), plane 1
	  2.322e-03  exp(-F*psi/RT), plane 2

	  1.100e+00  capacitance 0-1, F/m^2
	  5.000e+00  capacitance 1-2, F/m^2
	  9.639e+01  specific area, m^2/g
	  9.639e+01  m^2 for   1.000e+00 g

	Water in diffuse layer: 9.639e-04 kg, 100.0% of total DDL-water.

	Total moles in diffuse layer (excluding water), Donnan calculation 

	Element       	     Moles
	As            	  1.7529e-16
	Cl            	  1.2242e-04
	H             	  8.4455e-09
	Na            	  8.3320e-07
	O             	  1.3544e-12
	P             	  2.4384e-16

Goe_tri       
	  4.320e-04  moles
	                                        Mole                     Log
	Species                    Moles    Fraction    Molality    Molality

	Goe_triOH+0.5          2.715e-04       0.628   2.715e-04      -3.566
	Goe_triO-0.5           1.605e-04       0.372   1.605e-04      -3.794
	Goe_triONa+0.5         3.334e-10       0.000   3.334e-10      -9.477

Goe_uni       
	  5.520e-04  moles
	                                        Mole                     Log
	Species                    Moles    Fraction    Molality    Molality

	Goe_uniOH2+0.5         3.449e-04       0.625   3.449e-04      -3.462
	Goe_uniOH-0.5          2.039e-04       0.369   2.039e-04      -3.691
	Goe_uni2O2PO2-2        7.256e-07       0.003   7.256e-07      -6.139
	Goe_uniOAsO3-2.5       5.815e-07       0.001   5.815e-07      -6.235
	Goe_uni2O2AsO2-2       4.028e-07       0.001   4.028e-07      -6.395
	Goe_uniOPO3-2.5        2.631e-07       0.000   2.631e-07      -6.580
	Goe_uni2O2AsOOH-       1.572e-08       0.000   1.572e-08      -7.804
	Goe_uni2O2POOH-        1.127e-08       0.000   1.127e-08      -7.948
	Goe_uniOHNa+0.5        4.236e-10       0.000   4.236e-10      -9.373

-----------------------------Solution composition------------------------------

	Elements           Molality       Moles

	As                1.419e-14   1.419e-14
	Cl                1.011e-02   1.011e-02
	Na                9.999e-03   9.999e-03
	P                 2.002e-14   2.002e-14

----------------------------Description of solution----------------------------

                                       pH  =   4.000      Charge balance
                                       pe  =  14.218      Adjusted to redox equilibrium
                        Activity of water  =   1.000
                           Ionic strength  =   1.003e-02
                       Mass of water (kg)  =   1.000e+00
                 Total alkalinity (eq/kg)  =  -1.109e-04
                    Total carbon (mol/kg)  =   0.000e+00
                       Total CO2 (mol/kg)  =   0.000e+00
                      Temperature (deg C)  =  25.00
                  Electrical balance (eq)  =  -1.043e-17
 Percent error, 100*(Cat-|An|)/(Cat+|An|)  =  -0.00
                               Iterations  =   1
                                  Total H  = 1.110126e+02
                                  Total O  = 5.550622e+01

----------------------------Distribution of species----------------------------

                                            Log       Log         Log     mole V
   Species          Molality    Activity  Molality  Activity     Gamma   cm3/mol

   H+              1.109e-04   1.000e-04    -3.955    -4.000    -0.045      0.00
   OH-             1.108e-10   9.997e-11    -9.955   -10.000    -0.045     (0)  
   H2O             5.551e+01   9.997e-01     1.744    -0.000     0.000     18.07
As            1.419e-14
   H2AsO4-         1.393e-14   1.257e-14   -13.856   -13.901    -0.045     (0)  
   H3AsO4          2.194e-16   2.199e-16   -15.659   -15.658     0.001     (0)  
   HAsO4-2         3.315e-17   2.194e-17   -16.479   -16.659    -0.179     (0)  
   AsO4-3          1.408e-24   5.562e-25   -23.851   -24.255    -0.403     (0)  
Cl            1.011e-02
   Cl-             1.003e-02   9.046e-03    -1.999    -2.044    -0.045     (0)  
   NaCl            8.073e-05   8.092e-05    -4.093    -4.092     0.001     (0)  
H(0)          5.174e-40
   H2              2.587e-40   2.593e-40   -39.587   -39.586     0.001     (0)  
Na            9.999e-03
   Na+             9.918e-03   8.946e-03    -2.004    -2.048    -0.045     (0)  
   NaCl            8.073e-05   8.092e-05    -4.093    -4.092     0.001     (0)  
   NaOH            5.629e-13   5.642e-13   -12.250   -12.249     0.001     (0)  
O(0)          1.236e-13
   O2              6.182e-14   6.196e-14   -13.209   -13.208     0.001     (0)  
P             2.002e-14
   H2PO4-          1.975e-14   1.782e-14   -13.704   -13.749    -0.045     (0)  
   H3PO4           2.511e-16   2.517e-16   -15.600   -15.599     0.001     (0)  
   HPO4-2          1.699e-17   1.124e-17   -16.770   -16.949    -0.179     (0)  
   PO4-3           1.271e-25   5.022e-26   -24.896   -25.299    -0.403     (0)  
   (H2PO4)2-2      2.143e-28   1.418e-28   -27.669   -27.848    -0.179     (0)  
   H2P2O7-2        9.357e-34   6.192e-34   -33.029   -33.208    -0.179     (0)  
   H3P2O7-         1.308e-35   1.180e-35   -34.883   -34.928    -0.045     (0)  
   HP2O7-3         3.128e-36   1.235e-36   -35.505   -35.908    -0.403     (0)  
   H4P2O7          7.427e-39   7.444e-39   -38.129   -38.128     0.001     (0)  
   P2O7-4          0.000e+00   0.000e+00   -40.601   -41.318    -0.717     (0)  

------------------------------Saturation indices-------------------------------

	Phase               SI   log IAP   log K(298 K,   1 atm)

	Fix_pH           -4.00     -4.00    0.00  H+


------------------
End of simulation.
------------------

-------------------------------------
Reading input data for simulation 13.
-------------------------------------

-----------
End of run.
-----------

