   Input file: PR_equil2
  Output file: PR_equil2.out
Database file: ../database/phreeqc.dat

------------------
Reading data base.
------------------

	SOLUTION_MASTER_SPECIES
	SOLUTION_SPECIES
	PHASES
	EXCHANGE_MASTER_SPECIES
	EXCHANGE_SPECIES
	SURFACE_MASTER_SPECIES
	SURFACE_SPECIES
	RATES
	END
------------------------------------
Reading input data for simulation 1.
------------------------------------

	DATABASE ../database/phreeqc.dat
	SOLUTION_SPECIES
	Na+ = Na+
		gamma	4.0	0.075
		dw	 1.33e-9
		millero -3.46 0.1092 -0.000768 2.698 -0.106 0.001651
		vm -2.15 0.0193 2.23e-4  6.2e-3 0.015 -2.74e-4  -0.9e-3  0.35 # NaCl.xls, Laliberte, 2009. Halite solubility
	Cl- = Cl-
		gamma	3.5	0.015
		dw	 2.03e-9
		millero 16.37 0.0896 -0.001264 -1.494 0.034 -0.000621
		vm 16.26 0.104 -1.25e-3  0.467 -0.027 2.95e-4  -1e-3  0.04 # 0-100 oC, HCl.xls, Laliberte, 2009. Halite solubility
	SO4-2 = SO4-2
		gamma	5.0	-0.04
		dw	 1.07e-9
		millero 9.26 0.284 -0.003808 0.4348 -0.0099143 -8.4762e-05
		vm 9.55 0.297 -3e-3  2.06 -0.08 7.08e-4  -9e-3  0.017 # Na2SO4.xls, Laliberte, 2009; Phulela and Pitzer, 1986; Gypsum/Anhydrite solubility.  0-200 oC, 1-1000 atm.
	CO3-2 + 2 H+ = CO2 + H2O
		log_k	16.681
		delta_h -5.738	kcal
		analytical_expression	464.1965	0.09344813	-26986.16	-165.75951	2248628.9
		dw	 1.92e-9
		vm   26.5 -0.066   0  0 0 0 -9.7E-03 # Data in Duan et al., 2006, MC 98, 131. 1-100 oC, 1-700 atm.
	2 H2O = O2 + 4 H+ + 4 e-
		log_k	-86.08
		delta_h 134.79 kcal
		dw	 2.35e-9
		vm 35 # Pray et al., 1952, IEC 44. 1146
	2 H+ + 2 e- = H2
		log_k	-3.15
		delta_h -1.759 kcal
		dw	 5.13e-9
		vm 20 # Pray et al., 1952, IEC 44. 1146
	CO3-2 + 10 H+ + 8 e- = CH4 + 3 H2O
		log_k	41.071
		delta_h -61.039 kcal
		dw	 1.85e-9
		vm 33
	HS- + H+ = H2S
		log_k	6.994
		delta_h -5.30	kcal
		analytical_expression  -11.17   0.02386  3279.0
		dw	 2.1e-9
		vm 34 0.021 3e-4 0 0 0 2.7e-3 # Hnedkovsky et al., 1996, JCT 28, 125
	2 NO3- + 12 H+ + 10 e- = N2 + 6 H2O
		log_k	207.08
		delta_h -312.130	kcal
		dw	 1.96e-9
		vm 30 # Pray et al., 1952, IEC 44. 1146
	PHASES
	CO2(g)
		CO2 = CO2
		log_k	-1.468
		delta_h -4.776 kcal
		analytical_expression	108.3865	0.01985076	-6919.53	-40.45154	669365.0
		t_c  304.2 # critical T, K
		p_c   72.80 # critical P, atm
		omega 0.225 #  acentric factor
	O2(g)
		O2 = O2
		log_k   -2.8983
		analytical_expression -7.5001 7.8981e-003 0.0 0.0 2.0027e+005
		T_c  154.6 # critical T, K
		p_c   49.80 # critical P, atm
		omega 0.021 #  acentric factor
	H2(g)
		H2 = H2
		log_k	   -3.1050
		delta_h -4.184  kJ
		analytical_expression   -9.3114e+000    4.6473e-003   -4.9335e+001    1.4341e+000    1.2815e+005
		t_c  33.2 # critical T, K
		p_c   12.80 # critical P, atm
		omega 0.225 #  acentric factor
	N2(g)
		N2 = N2
		log_k		 -3.1864
		analytical_expression -58.453 1.81800E-03  3199  17.909 -27460
		T_c  126.2 # critical T, K
		p_c   33.50 # critical P, atm
		omega 0.039 #  acentric factor
	H2S(g)
		H2S  =  H+ + HS-
		log_k	   -7.9759
		analytical_expression -9.7354e+001 -3.1576e-002 1.8285e+003 3.7440e+001 2.8560e+001
		T_c  373.2 # critical T, K
		p_c  88.20 # critical P, atm
		omega 0.1 #  acentric factor
	CH4(g)
		CH4 = CH4
		log_k	   -2.8502
		analytical_expression -2.4027e+001 4.7146e-003 3.7227e+002 6.4264e+000 2.3362e+005
		T_c  190.6 # critical T, K
		p_c   45.40 # critical P, atm
		omega 0.008 #  acentric factor
	Mirabilite
		Na2SO4:10H2O  =  SO4-2 + 2 Na+ + 10 H2O
		log_k	   -1.214
		analytical_expression       -3862.234   -1.19856    93713.54    1577.756    0.
		vm  216.2
	H2O(g)
		H2O = H2O
		log_k  1.506
	 delta_h -44.03 kJ
		T_c  647.3 # critical T, K
		p_c  217.60 # critical P, atm
		omega 0.344 #  acentric factor
		analytical_expression   -16.5066 -2.0013E-3  2710.7  3.7646  0 2.24E-6
	SOLUTION 1
	C(-4) 1 CH4(g) 2 # equilibrium with a pure gas
	 C(4) 1 CO2(g) 2
	N 1 N2(g) 2
	  pH 3 charge
	  pressure 300
	GAS_PHASE 1 Mixture: Note changing phi's...
	 fixed_pressure
	 pressure 300
	CH4(g) 100
	 CO2(g) 100
	N2(g) 100
	END
-------------------------------------------
Beginning of initial solution calculations.
-------------------------------------------

Initial solution 1.	

-----------------------------Solution composition------------------------------

	Elements           Molality       Moles

	C(-4)             7.831e-02   7.831e-02  Equilibrium with CH4(g)
	C(4)              1.208e+00   1.208e+00  Equilibrium with CO2(g)
	N                 8.990e-02   8.990e-02  Equilibrium with N2(g)

----------------------------Description of solution----------------------------

                                       pH  =   3.099      Charge balance
                                       pe  =   4.000    
       Specific Conductance (uS/cm, 25 oC) = 317
                          Density (g/cm3)  =   1.01278
                        Activity of water  =   0.977
                           Ionic strength  =   8.218e-04
                       Mass of water (kg)  =   1.000e+00
                 Total alkalinity (eq/kg)  =   2.934e-10
                       Total CO2 (mol/kg)  =   1.208e+00
                      Temperature (deg C)  =  25.00
                           Pressure (atm)  = 300.00
                  Electrical balance (eq)  =   6.137e-14
 Percent error, 100*(Cat-|An|)/(Cat+|An|)  =   0.00
                               Iterations  =   7
                                  Total H  = 1.113273e+02
                                  Total O  = 5.792378e+01

---------------------------------Redox couples---------------------------------

	Redox couple             pe  Eh (volts)

	C(-4)/C(4)           0.1299      0.0077

----------------------------Distribution of species----------------------------

                                            Log       Log         Log     mole V
   Species          Molality    Activity  Molality  Activity     Gamma   cm3/mol

   H+              8.218e-04   7.967e-04    -3.085    -3.099    -0.013      0.00
   OH-             1.269e-11   1.228e-11   -10.897   -10.911    -0.014     (0)  
   H2O             5.551e+01   9.773e-01     1.744    -0.010     0.000     17.82
C(-4)         7.831e-02
   CH4             7.831e-02   7.833e-02    -1.106    -1.106     0.000     33.00
C(4)          1.208e+00
   CO2             1.208e+00   1.208e+00     0.082     0.082     0.000     21.94
   HCO3-           8.218e-04   7.959e-04    -3.085    -3.099    -0.014     24.32
   CO3-2           7.496e-11   6.596e-11   -10.125   -10.181    -0.056     -3.67
H(0)          7.037e-18
   H2              3.518e-18   3.519e-18   -17.454   -17.454     0.000     20.00
N(-3)         2.934e-10
   NH4+            2.934e-10   2.840e-10    -9.532    -9.547    -0.014     17.89
   NH3             3.407e-16   3.408e-16   -15.468   -15.468     0.000     (0)  
N(0)          8.990e-02
   N2              4.495e-02   4.496e-02    -1.347    -1.347     0.000     30.00
N(3)          0.000e+00
   NO2-            0.000e+00   0.000e+00   -51.045   -51.059    -0.014     (0)  
N(5)          0.000e+00
   NO3-            0.000e+00   0.000e+00   -65.428   -65.442    -0.014     29.02
O(0)          0.000e+00
   O2              0.000e+00   0.000e+00   -57.702   -57.702     0.000     35.00

------------------------------Saturation indices-------------------------------

	Phase               SI   log IAP   log K(298 K, 300 atm)

	CH4(g)            1.91     -1.11   -3.02  CH4	 Pressure 100.0 atm, phi 0.817.
	CO2(g)            1.44      0.08   -1.35  CO2	 Pressure 100.0 atm, phi 0.464.
	H2(g)           -14.35    -17.45   -3.10  H2
	H2O(g)           -1.42     -0.01    1.41  H2O
	N2(g)             1.57     -1.35   -2.92  N2	 Pressure 100.0 atm, phi 0.972.
	NH3(g)          -17.37    -15.47    1.90  NH3
	O2(g)           -54.62    -57.70   -3.08  O2


-----------------------------------------
Beginning of batch-reaction calculations.
-----------------------------------------

Reaction step 1.

Using solution 1.	
Using gas phase 1.	Mixture: Note changing phi's...

-----------------------------------Gas phase-----------------------------------

Total pressure: 300.00      atmospheres          (Peng-Robinson calculation)
    Gas volume:   9.70e-01 liters
  Molar volume:   6.73e-02 liters/mole
   P * Vm / RT:  0.82478  (Compressibility Factor Z) 

                                                        Moles in gas
                                            ----------------------------------
Component         log P           P    phi     Initial       Final       Delta

CH4(g)             1.99   9.836e+01  0.671   4.896e+00   4.729e+00  -1.674e-01
CO2(g)             2.02   1.051e+02  0.307   4.896e+00   5.054e+00   1.577e-01
N2(g)              1.98   9.652e+01  1.195   4.896e+00   4.641e+00  -2.555e-01

-----------------------------Solution composition------------------------------

	Elements           Molality       Moles

	C                 1.317e+00   1.296e+00
	N                 6.106e-01   6.008e-01

----------------------------Description of solution----------------------------

                                       pH  =   5.915      Charge balance
                                       pe  =  -2.753      Adjusted to redox equilibrium
       Specific Conductance (uS/cm, 25 oC) = 43727
                          Density (g/cm3)  =   1.02766
                        Activity of water  =   0.968
                           Ionic strength  =   5.158e-01
                       Mass of water (kg)  =   9.840e-01
                 Total alkalinity (eq/kg)  =   5.158e-01
                       Total CO2 (mol/kg)  =   1.261e+00
                      Temperature (deg C)  =  25.00
                           Pressure (atm)  = 300.00
                  Electrical balance (eq)  =   6.148e-14
 Percent error, 100*(Cat-|An|)/(Cat+|An|)  =   0.00
                               Iterations  =  40
                                  Total H  = 1.119968e+02
                                  Total O  = 5.760833e+01

----------------------------Distribution of species----------------------------

                                            Log       Log         Log     mole V
   Species          Molality    Activity  Molality  Activity     Gamma   cm3/mol

   H+              1.594e-06   1.217e-06    -5.798    -5.915    -0.117      0.00
   OH-             1.263e-08   7.963e-09    -7.899    -8.099    -0.200     (0)  
   H2O             5.551e+01   9.680e-01     1.744    -0.014     0.000     17.82
C(-4)         5.624e-02
   CH4             5.624e-02   6.333e-02    -1.250    -1.198     0.052     33.00
C(4)          1.261e+00
   CO2             7.455e-01   8.395e-01    -0.128    -0.076     0.052     21.94
   HCO3-           5.155e-01   3.559e-01    -0.288    -0.449    -0.161     24.96
   CO3-2           8.301e-05   1.886e-05    -4.081    -4.724    -0.644     -1.10
H(0)          4.678e-10
   H2              2.339e-10   2.634e-10    -9.631    -9.579     0.052     20.00
N(-3)         5.158e-01
   NH4+            5.157e-01   3.036e-01    -0.288    -0.518    -0.230     18.53
   NH3             1.318e-04   1.484e-04    -3.880    -3.828     0.052     (0)  
N(0)          9.477e-02
   N2              4.739e-02   5.336e-02    -1.324    -1.273     0.052     30.00
N(3)          0.000e+00
   NO2-            0.000e+00   0.000e+00   -60.021   -60.235    -0.214     (0)  
N(5)          0.000e+00
   NO3-            0.000e+00   0.000e+00   -82.076   -82.290    -0.214     29.66
O(0)          0.000e+00
   O2              0.000e+00   0.000e+00   -73.510   -73.458     0.052     35.00

------------------------------Saturation indices-------------------------------

	Phase               SI   log IAP   log K(298 K, 300 atm)

	CH4(g)            1.35     -1.20   -2.55  CH4	 Pressure  98.4 atm, phi 0.671.
	CO2(g)            1.29     -0.08   -1.37  CO2	 Pressure 105.1 atm, phi 0.307.
	H2(g)            -6.48     -9.58   -3.10  H2
	H2O(g)           -1.42     -0.01    1.41  H2O
	N2(g)             2.06     -1.27   -3.33  N2	 Pressure  96.5 atm, phi 1.195.
	NH3(g)           -5.52     -3.83    1.69  NH3
	O2(g)           -70.38    -73.46   -3.08  O2


------------------
End of simulation.
------------------

------------------------------------
Reading input data for simulation 2.
------------------------------------

	SOLUTION 2
	 C(4) 1 CO2(g) 2
	  pH 3 charge
	  pressure 100
	GAS_PHASE 2 Pure: same phi...
	 fixed_pressure
	 pressure 100
	 CO2(g) 100
	END
-------------------------------------------
Beginning of initial solution calculations.
-------------------------------------------

Initial solution 2.	

-----------------------------Solution composition------------------------------

	Elements           Molality       Moles

	C(4)              1.434e+00   1.434e+00  Equilibrium with CO2(g)

----------------------------Description of solution----------------------------

                                       pH  =   3.087      Charge balance
                                       pe  =   4.000    
       Specific Conductance (uS/cm, 25 oC) = 326
                          Density (g/cm3)  =   1.00167
                        Activity of water  =   0.976
                           Ionic strength  =   8.437e-04
                       Mass of water (kg)  =   1.000e+00
                 Total alkalinity (eq/kg)  =  -1.224e-18
                       Total CO2 (mol/kg)  =   1.434e+00
                      Temperature (deg C)  =  25.00
                           Pressure (atm)  = 100.00
                  Electrical balance (eq)  =   1.224e-18
 Percent error, 100*(Cat-|An|)/(Cat+|An|)  =   0.00
                               Iterations  =   7
                                  Total H  = 1.110141e+02
                                  Total O  = 5.837566e+01

----------------------------Distribution of species----------------------------

                                            Log       Log         Log     mole V
   Species          Molality    Activity  Molality  Activity     Gamma   cm3/mol

   H+              8.437e-04   8.177e-04    -3.074    -3.087    -0.014      0.00
   OH-             1.234e-11   1.194e-11   -10.909   -10.923    -0.014     (0)  
   H2O             5.551e+01   9.756e-01     1.744    -0.011     0.000     17.99
C(4)          1.434e+00
   CO2             1.433e+00   1.434e+00     0.156     0.156     0.000     23.88
   HCO3-           8.437e-04   8.168e-04    -3.074    -3.088    -0.014     24.32
   CO3-2           5.973e-11   5.247e-11   -10.224   -10.280    -0.056     -3.67
H(0)          8.729e-18
   H2              4.364e-18   4.365e-18   -17.360   -17.360     0.000     20.00
O(0)          0.000e+00
   O2              0.000e+00   0.000e+00   -57.750   -57.750     0.000     35.00

------------------------------Saturation indices-------------------------------

	Phase               SI   log IAP   log K(298 K, 100 atm)

	CO2(g)            1.59      0.16   -1.43  CO2	 Pressure 100.0 atm, phi 0.464.
	H2(g)           -14.26    -17.36   -3.10  H2
	H2O(g)           -1.48     -0.01    1.47  H2O
	O2(g)           -54.79    -57.75   -2.96  O2


-----------------------------------------
Beginning of batch-reaction calculations.
-----------------------------------------

Reaction step 1.

Using solution 2.	
Using gas phase 2.	Pure: same phi...

-----------------------------------Gas phase-----------------------------------

Total pressure: 100.00      atmospheres          (Peng-Robinson calculation)
    Gas volume:   1.00e+00 liters
  Molar volume:   5.62e-02 liters/mole
   P * Vm / RT:  0.22952  (Compressibility Factor Z) 

                                                        Moles in gas
                                            ----------------------------------
Component         log P           P    phi     Initial       Final       Delta

CO2(g)             2.00   1.000e+02  0.464   1.781e+01   1.781e+01   7.624e-12

-----------------------------Solution composition------------------------------

	Elements           Molality       Moles

	C                 1.434e+00   1.434e+00

----------------------------Description of solution----------------------------

                                       pH  =   3.087      Charge balance
                                       pe  =   2.355      Adjusted to redox equilibrium
       Specific Conductance (uS/cm, 25 oC) = 326
                          Density (g/cm3)  =   1.00167
                        Activity of water  =   0.976
                           Ionic strength  =   8.437e-04
                       Mass of water (kg)  =   1.000e+00
                 Total alkalinity (eq/kg)  =   1.558e-15
                       Total CO2 (mol/kg)  =   1.434e+00
                      Temperature (deg C)  =  25.00
                           Pressure (atm)  = 100.00
                  Electrical balance (eq)  =  -1.558e-15
 Percent error, 100*(Cat-|An|)/(Cat+|An|)  =  -0.00
                               Iterations  =   6
                                  Total H  = 1.110141e+02
                                  Total O  = 5.837566e+01

----------------------------Distribution of species----------------------------

                                            Log       Log         Log     mole V
   Species          Molality    Activity  Molality  Activity     Gamma   cm3/mol

   H+              8.437e-04   8.177e-04    -3.074    -3.087    -0.014      0.00
   OH-             1.234e-11   1.194e-11   -10.909   -10.923    -0.014     (0)  
   H2O             5.551e+01   9.756e-01     1.744    -0.011     0.000     17.99
C(-4)         8.963e-20
   CH4             8.963e-20   8.965e-20   -19.048   -19.047     0.000     33.00
C(4)          1.434e+00
   CO2             1.433e+00   1.434e+00     0.156     0.156     0.000     23.88
   HCO3-           8.437e-04   8.168e-04    -3.074    -3.088    -0.014     24.32
   CO3-2           5.973e-11   5.247e-11   -10.224   -10.280    -0.056     -3.67
H(0)          1.705e-14
   H2              8.524e-15   8.526e-15   -14.069   -14.069     0.000     20.00
O(0)          0.000e+00
   O2              0.000e+00   0.000e+00   -64.332   -64.332     0.000     35.00

------------------------------Saturation indices-------------------------------

	Phase               SI   log IAP   log K(298 K, 100 atm)

	CH4(g)          -16.31    -19.05   -2.74  CH4
	CO2(g)            1.59      0.16   -1.43  CO2	 Pressure 100.0 atm, phi 0.464.
	H2(g)           -10.97    -14.07   -3.10  H2
	H2O(g)           -1.48     -0.01    1.47  H2O
	O2(g)           -61.38    -64.33   -2.96  O2


------------------
End of simulation.
------------------

------------------------------------
Reading input data for simulation 3.
------------------------------------

-----------
End of run.
-----------

