WARNING: Database file from DATABASE keyword is used; command line argument ignored.
   Input file: a_e_t2
  Output file: a_e_t2.out
Database file: ../database/phreeqc.dat

------------------
Reading data base.
------------------

	SOLUTION_MASTER_SPECIES
	SOLUTION_SPECIES
	PHASES
	EXCHANGE_MASTER_SPECIES
	EXCHANGE_SPECIES
	SURFACE_MASTER_SPECIES
	SURFACE_SPECIES
	RATES
	END
------------------------------------
Reading input data for simulation 1.
------------------------------------

	database ../database/phreeqc.dat
	SELECTED_OUTPUT 101
	    file                 a_e_t2_101.sel
	USER_PUNCH 101
	    headings Mu SC
	    start
	10 PUNCH STR_F$(MU, 20, 12)
	20 PUNCH STR_F$(SC, 20, 10)
	    end
	PHASES
	Calcite
		CaCO3 = CO3-2 + Ca+2
		log_k	   -8.480
		delta_h -2.297 kcal
		analytical_expression       0   0   0    0	 0   -8.999541E-05 
	SOLUTION_SPECIES
	Ca+2 + CO3-2 = CaCO3
		log_k	   3.224
		delta_h 3.545   kcal
		analytical_expression       0   0   0    0	 0   3E-05	
		dw 4.46e-10	# complexes: calc'd with the Pikal formula
	EXCHANGE_SPECIES
	Ca+2 + 2X- = CaX2
		log_k   0.8
		gamma  5.0     0.165
		delta_h  7.2    # Van Bladel & Gheyl, 1980
		analytical_expression       0   0   0    0	 0   1E-05	
	SURFACE_SPECIES
		Hfo_sOH + Ca+2 = Hfo_sOHCa+2
		log_k  4.97
		analytical_expression       0   0   0    0	 0   5E-05
	END
------------------
End of simulation.
------------------

------------------------------------
Reading input data for simulation 2.
------------------------------------

	SOLUTION
	EQUILIBRIUM_PHASES
		calcite
	EXCHANGE
		NaX   1
	SURFACE
		no_edl
		Hfo_sOH   .01
	USER_PRINT
	10 PRINT "Calcite:    ", lk_phase("Calcite"), lk_phase("Calcite")/TK/TK
	20 PRINT "CaCO3(aq):  ", lk_species("CaCO3"), lk_species("CaCO3")/TK/TK
	30 PRINT "CaX2:       ", lk_species("CaX2"), lk_species("CaX2")/TK/TK
	40 PRINT "Hfo_sOHCa+2:", lk_species("Hfo_sOHCa+2"), lk_species("Hfo_sOHCa+2")/TK/TK
-------------------------------------------
Beginning of initial solution calculations.
-------------------------------------------

Initial solution 1.	

----------------------------------User print-----------------------------------

Calcite:      -8.0000e+00  -8.9995e-05 
CaCO3(aq):     2.6668e+00   3.0000e-05 
CaX2:          8.8893e-01   1.0000e-05 
Hfo_sOHCa+2:   4.4447e+00   5.0000e-05 

-----------------------------Solution composition------------------------------

	Elements           Molality       Moles

	Pure water     

----------------------------Description of solution----------------------------

                                       pH  =   7.000    
                                       pe  =   4.000    
      Specific Conductance (µS/cm,  25°C)  = 0
                          Density (g/cm³)  =   0.99704
                               Volume (L)  =   1.00297
                        Viscosity (mPa s)  =   0.89002
                        Activity of water  =   1.000
                 Ionic strength (mol/kgw)  =   1.007e-07
                       Mass of water (kg)  =   1.000e+00
                 Total alkalinity (eq/kg)  =   1.217e-09
                         Temperature (°C)  =  25.00
                  Electrical balance (eq)  =  -1.217e-09
 Percent error, 100*(Cat-|An|)/(Cat+|An|)  =  -0.60
                               Iterations  =   0
                                  Total H  = 1.110124e+02
                                  Total O  = 5.550622e+01

----------------------------Distribution of species----------------------------

                                               Log       Log       Log    mole V
   Species          Molality    Activity  Molality  Activity     Gamma   cm³/mol

   OH-             1.013e-07   1.012e-07    -6.995    -6.995    -0.000     -4.14
   H+              1.001e-07   1.000e-07    -7.000    -7.000    -0.000      0.00
   H2O             5.551e+01   1.000e+00     1.744     0.000     0.000     18.07
H(0)          1.416e-25
   H2              7.079e-26   7.079e-26   -25.150   -25.150     0.000     28.61
O(0)          0.000e+00
   O2              0.000e+00   0.000e+00   -42.080   -42.080     0.000     30.40

------------------------------Saturation indices-------------------------------

  Phase               SI** log IAP   log K(298 K,   1 atm)

  H2(g)           -22.05    -25.15   -3.10  H2
  H2O(g)           -1.50      0.00    1.50  H2O
  O2(g)           -39.19    -42.08   -2.89  O2

**For a gas, SI = log10(fugacity). Fugacity = pressure * phi / 1 atm.
  For ideal gases, phi = 1.

-----------------------------------------
Beginning of batch-reaction calculations.
-----------------------------------------

Reaction step 1.

Using solution 1.	
Using exchange 1.	
Using surface 1.	
Using pure phase assemblage 1.	

----------------------------------User print-----------------------------------

Calcite:      -8.0000e+00  -8.9995e-05 
CaCO3(aq):     2.6668e+00   3.0000e-05 
CaX2:          8.8893e-01   1.0000e-05 
Hfo_sOHCa+2:   4.4447e+00   5.0000e-05 

-------------------------------Phase assemblage--------------------------------

                                                      Moles in assemblage
Phase               SI  log IAP  log K(T, P)   Initial       Final       Delta

Calcite           0.00    -8.00     -8.00    1.000e+01   9.983e+00  -1.677e-02

------------------------------Surface composition------------------------------

Hfo           
	 -9.086e-03  Surface charge, eq
Hfo_s         
	  1.000e-02  moles
	                                   Mole                     Log
	Species               Moles    Fraction    Molality    Molality

	Hfo_sO-           9.197e-03       0.920   9.197e-03      -2.036
	Hfo_sOH           7.472e-04       0.075   7.472e-04      -3.127
	Hfo_sOHCa+2       5.453e-05       0.005   5.453e-05      -4.263
	Hfo_sOH2+         1.391e-06       0.000   1.391e-06      -5.857

-----------------------------Exchange composition------------------------------

X                1.000e+00 mol

	                               Equiv-    Equivalent      Log 
	Species             Moles      alents      Fraction     Gamma

	NaX               9.666e-01   9.666e-01   9.666e-01    -0.074
	CaX2              1.670e-02   3.340e-02   3.340e-02    -0.290

-----------------------------Solution composition------------------------------

	Elements           Molality       Moles

	C                 1.677e-02   1.677e-02
	Ca                1.002e-05   1.002e-05
	Na                3.340e-02   3.340e-02

----------------------------Description of solution----------------------------

                                       pH  =  10.020      Charge balance
                                       pe  =  -4.371      Adjusted to redox equilibrium
      Specific Conductance (µS/cm,  25°C)  = 2587
                          Density (g/cm³)  =   0.99866
                               Volume (L)  =   1.00313
                        Viscosity (mPa s)  =   0.89754
                        Activity of water  =   0.999
                 Ionic strength (mol/kgw)  =   3.617e-02
                       Mass of water (kg)  =   1.000e+00
                 Total alkalinity (eq/kg)  =   2.434e-02
                       Total CO2 (mol/kg)  =   1.677e-02
                         Temperature (°C)  =  25.00
                  Electrical balance (eq)  =   9.086e-03
 Percent error, 100*(Cat-|An|)/(Cat+|An|)  =  15.81
                               Iterations  =  19
                                  Total H  = 1.110216e+02
                                  Total O  = 5.555652e+01

----------------------------Distribution of species----------------------------

                                               Log       Log       Log    mole V
   Species          Molality    Activity  Molality  Activity     Gamma   cm³/mol

   OH-             1.273e-04   1.059e-04    -3.895    -3.975    -0.080     -3.92
   H+              1.101e-10   9.546e-11    -9.958   -10.020    -0.062      0.00
   H2O             5.551e+01   9.991e-01     1.744    -0.000     0.000     18.07
C(-4)         2.608e-27
   CH4             2.608e-27   2.630e-27   -26.584   -26.580     0.004     35.46
C(4)          1.677e-02
   HCO3-           9.176e-03   7.765e-03    -2.037    -2.110    -0.073     24.81
   CO3-2           7.440e-03   3.815e-03    -2.128    -2.419    -0.290     -3.38
   NaHCO3          1.427e-04   1.455e-04    -3.845    -3.837     0.008     28.00
   CaCO3           4.605e-06   4.643e-06    -5.337    -5.333     0.004     (0)  
   CO2             1.659e-06   1.668e-06    -5.780    -5.778     0.002     34.43
   CaHCO3+         3.055e-07   2.597e-07    -6.515    -6.586    -0.071      9.78
   (CO2)2          5.064e-14   5.107e-14   -13.295   -13.292     0.004     68.87
Ca            1.002e-05
   Ca+2            5.108e-06   2.621e-06    -5.292    -5.581    -0.290    -17.70
   CaCO3           4.605e-06   4.643e-06    -5.337    -5.333     0.004     (0)  
   CaHCO3+         3.055e-07   2.597e-07    -6.515    -6.586    -0.071      9.78
   CaOH+           5.424e-09   4.554e-09    -8.266    -8.342    -0.076     (0)  
H(0)          7.065e-15
   H2              3.532e-15   3.562e-15   -14.452   -14.448     0.004     28.61
Na            3.340e-02
   Na+             3.326e-02   2.803e-02    -1.478    -1.552    -0.074     -1.26
   NaHCO3          1.427e-04   1.455e-04    -3.845    -3.837     0.008     28.00
   NaOH            2.945e-16   2.969e-16   -15.531   -15.527     0.004     (0)  
O(0)          0.000e+00
   O2              0.000e+00   0.000e+00   -63.488   -63.484     0.004     30.40

------------------------------Saturation indices-------------------------------

  Phase               SI** log IAP   log K(298 K,   1 atm)

  Aragonite         0.34     -8.00   -8.34  CaCO3
  Calcite           0.00     -8.00   -8.00  CaCO3
  CH4(g)          -23.78    -26.58   -2.80  CH4
  CO2(g)           -4.31     -5.78   -1.47  CO2
  H2(g)           -11.35    -14.45   -3.10  H2
  H2O(g)           -1.50     -0.00    1.50  H2O
  O2(g)           -60.59    -63.48   -2.89  O2

**For a gas, SI = log10(fugacity). Fugacity = pressure * phi / 1 atm.
  For ideal gases, phi = 1.

------------------
End of simulation.
------------------

------------------------------------
Reading input data for simulation 3.
------------------------------------

