   Input file: alkalinity
  Output file: alkalinity.out
Database file: ../database/phreeqc.dat

------------------
Reading data base.
------------------

	SOLUTION_MASTER_SPECIES
	SOLUTION_SPECIES
	PHASES
	EXCHANGE_MASTER_SPECIES
	EXCHANGE_SPECIES
	SURFACE_MASTER_SPECIES
	SURFACE_SPECIES
	RATES
	END
------------------------------------
Reading input data for simulation 1.
------------------------------------

	DATABASE ../database/phreeqc.dat
	PRINT
		alkalinity
	SOLUTION 1 Fixed Carbon, Fixed Na, Fixed pH
		temp 	25.
		units 	mmol/kgw
		pH	8.0 	
		Na	1.0
		C	1.0
		N	1.0
		H(0)	0.001
	END
-------------------------------------------
Beginning of initial solution calculations.
-------------------------------------------

Initial solution 1.	Fixed Carbon, Fixed Na, Fixed pH

-----------------------------Solution composition------------------------------

	Elements           Molality       Moles

	C                 1.000e-03   1.000e-03
	H(0)              1.000e-06   1.000e-06
	N                 1.000e-03   1.000e-03
	Na                1.000e-03   1.000e-03

----------------------------Description of solution----------------------------

                                       pH  =   8.000    
                                       pe  =   4.000    
       Specific Conductance (uS/cm, 25 oC) = 91
                          Density (g/cm3)  =   0.99710
                               Volume (L)  =   1.00305
                        Activity of water  =   1.000
                           Ionic strength  =   9.953e-04
                       Mass of water (kg)  =   1.000e+00
                 Total alkalinity (eq/kg)  =   9.850e-04
                       Total CO2 (mol/kg)  =   1.000e-03
                      Temperature (deg C)  =  25.00
                  Electrical balance (eq)  =   1.497e-05
 Percent error, 100*(Cat-|An|)/(Cat+|An|)  =   0.76
                               Iterations  =   9
                                  Total H  = 1.110134e+02
                                  Total O  = 5.550920e+01

---------------------------------Redox couples---------------------------------

	Redox couple             pe  Eh (volts)

	H(0)/H(1)           -6.4245     -0.3800

----------------------------Distribution of species----------------------------

                                               Log       Log       Log    mole V
   Species          Molality    Activity  Molality  Activity     Gamma   cm3/mol

   OH-             1.049e-06   1.012e-06    -5.979    -5.995    -0.016     -4.11
   H+              1.034e-08   1.000e-08    -7.985    -8.000    -0.015      0.00
   H2O             5.551e+01   1.000e+00     1.744    -0.000     0.000     18.07
C(-4)         0.000e+00
   CH4             0.000e+00   0.000e+00   -76.286   -76.286     0.000     32.22
C(4)          1.000e-03
   HCO3-           9.716e-04   9.381e-04    -3.013    -3.028    -0.015     24.59
   CO2             2.109e-05   2.109e-05    -4.676    -4.676     0.000     30.26
   CO3-2           5.062e-06   4.399e-06    -5.296    -5.357    -0.061     -4.37
   NaHCO3          2.269e-06   2.269e-06    -5.644    -5.644     0.000     19.41
   NaCO3-          1.960e-08   1.892e-08    -7.708    -7.723    -0.015     -0.66
H(0)          1.000e-06
   H2              5.000e-07   5.001e-07    -6.301    -6.301     0.000     28.61
N(-3)         8.423e-31
   NH4+            7.984e-31   7.701e-31   -30.098   -30.113    -0.016     17.96
   NH3             4.387e-32   4.388e-32   -31.358   -31.358     0.000     24.46
N(0)          1.000e-03
   N2              5.000e-04   5.001e-04    -3.301    -3.301     0.000     29.29
N(3)          2.484e-33
   NO2-            2.484e-33   2.396e-33   -32.605   -32.621    -0.016     24.97
N(5)          6.685e-38
   NO3-            6.685e-38   6.449e-38   -37.175   -37.191    -0.016     29.53
Na            1.000e-03
   Na+             9.977e-04   9.631e-04    -3.001    -3.016    -0.015     -1.39
   NaHCO3          2.269e-06   2.269e-06    -5.644    -5.644     0.000     19.41
   NaCO3-          1.960e-08   1.892e-08    -7.708    -7.723    -0.015     -0.66
   NaOH            9.745e-20   9.747e-20   -19.011   -19.011     0.000     (0)  
O(0)          1.663e-38
   O2              8.315e-39   8.317e-39   -38.080   -38.080     0.000     30.40

--------------------------Distribution of alkalinity---------------------------

	Total alkalinity (eq/kgw)  =   9.850e-04

	Species          Alkalinity    Molality   Alk/Mol

	HCO3-             9.716e-04   9.716e-04      1.00
	CO3-2             1.012e-05   5.062e-06      2.00
	NaHCO3            2.269e-06   2.269e-06      1.00
	OH-               1.049e-06   1.049e-06      1.00
	NaCO3-            3.920e-08   1.960e-08      2.00
	H+               -1.034e-08   1.034e-08     -1.00
	NaOH              9.745e-20   9.745e-20      1.00
	NH3               4.387e-32   4.387e-32      1.00

------------------------------Saturation indices-------------------------------

	Phase               SI   log IAP   log K(298 K,   1 atm)

	CH4(g)          -73.44    -76.29   -2.84  CH4
	CO2(g)           -3.22     -4.68   -1.46  CO2
	H2(g)            -3.20     -6.30   -3.10  H2
	H2O(g)           -1.50     -0.00    1.50  H2O
	N2(g)            -0.13     -3.30   -3.18  N2
	NH3(g)          -33.15    -31.36    1.80  NH3
	O2(g)           -35.19    -38.08   -2.89  O2


------------------
End of simulation.
------------------

------------------------------------
Reading input data for simulation 2.
------------------------------------

	SOLUTION 2 Fixed Carbon, Fixed Na, Adj. pH
		temp 	25.
		units 	mmol/kgw
		pH	8.0 	charge
		Na	1.0
		C	1.0	
		N	1.0
		H(0)	0.001
	END
-------------------------------------------
Beginning of initial solution calculations.
-------------------------------------------

Initial solution 2.	Fixed Carbon, Fixed Na, Adj. pH

-----------------------------Solution composition------------------------------

	Elements           Molality       Moles

	C                 1.000e-03   1.000e-03
	H(0)              1.000e-06   1.000e-06
	N                 1.000e-03   1.000e-03
	Na                1.000e-03   1.000e-03

----------------------------Description of solution----------------------------

                                       pH  =   8.268      Charge balance
                                       pe  =   4.000    
       Specific Conductance (uS/cm, 25 oC) = 92
                          Density (g/cm3)  =   0.99710
                               Volume (L)  =   1.00305
                        Activity of water  =   1.000
                           Ionic strength  =   1.007e-03
                       Mass of water (kg)  =   1.000e+00
                 Total alkalinity (eq/kg)  =   1.000e-03
                       Total CO2 (mol/kg)  =   1.000e-03
                      Temperature (deg C)  =  25.00
                  Electrical balance (eq)  =   1.656e-18
 Percent error, 100*(Cat-|An|)/(Cat+|An|)  =   0.00
                               Iterations  =   9
                                  Total H  = 1.110134e+02
                                  Total O  = 5.550921e+01

---------------------------------Redox couples---------------------------------

	Redox couple             pe  Eh (volts)

	H(0)/H(1)           -6.6929     -0.3959

----------------------------Distribution of species----------------------------

                                               Log       Log       Log    mole V
   Species          Molality    Activity  Molality  Activity     Gamma   cm3/mol

   OH-             1.946e-06   1.878e-06    -5.711    -5.726    -0.016     -4.11
   H+              5.577e-09   5.390e-09    -8.254    -8.268    -0.015      0.00
   H2O             5.551e+01   1.000e+00     1.744    -0.000     0.000     18.07
C(-4)         0.000e+00
   CH4             0.000e+00   0.000e+00   -78.699   -78.699     0.000     32.22
C(4)          1.000e-03
   HCO3-           9.768e-04   9.429e-04    -3.010    -3.026    -0.015     24.59
   CO2             1.143e-05   1.143e-05    -4.942    -4.942     0.000     30.26
   CO3-2           9.448e-06   8.204e-06    -5.025    -5.086    -0.061     -4.37
   NaHCO3          2.280e-06   2.281e-06    -5.642    -5.642     0.000     19.41
   NaCO3-          3.655e-08   3.528e-08    -7.437    -7.452    -0.015     -0.66
H(0)          1.000e-06
   H2              5.000e-07   5.001e-07    -6.301    -6.301     0.000     28.61
N(-3)         7.428e-32
   NH4+            6.741e-32   6.500e-32   -31.171   -31.187    -0.016     17.96
   NH3             6.871e-33   6.872e-33   -32.163   -32.163     0.000     24.46
N(0)          1.000e-03
   N2              5.000e-04   5.001e-04    -3.301    -3.301     0.000     29.29
N(3)          2.943e-32
   NO2-            2.943e-32   2.839e-32   -31.531   -31.547    -0.016     24.97
N(5)          2.726e-36
   NO3-            2.726e-36   2.630e-36   -35.564   -35.580    -0.016     29.53
Na            1.000e-03
   Na+             9.977e-04   9.628e-04    -3.001    -3.016    -0.015     -1.39
   NaHCO3          2.280e-06   2.281e-06    -5.642    -5.642     0.000     19.41
   NaCO3-          3.655e-08   3.528e-08    -7.437    -7.452    -0.015     -0.66
   NaOH            1.808e-19   1.808e-19   -18.743   -18.743     0.000     (0)  
O(0)          1.970e-37
   O2              9.851e-38   9.853e-38   -37.007   -37.006     0.000     30.40

--------------------------Distribution of alkalinity---------------------------

	Total alkalinity (eq/kgw)  =   1.000e-03

	Species          Alkalinity    Molality   Alk/Mol

	HCO3-             9.768e-04   9.768e-04      1.00
	CO3-2             1.890e-05   9.448e-06      2.00
	NaHCO3            2.280e-06   2.280e-06      1.00
	OH-               1.946e-06   1.946e-06      1.00
	NaCO3-            7.310e-08   3.655e-08      2.00
	H+               -5.577e-09   5.577e-09     -1.00
	NaOH              1.808e-19   1.808e-19      1.00
	NH3               6.871e-33   6.871e-33      1.00

------------------------------Saturation indices-------------------------------

	Phase               SI   log IAP   log K(298 K,   1 atm)

	CH4(g)          -75.86    -78.70   -2.84  CH4
	CO2(g)           -3.48     -4.94   -1.46  CO2
	H2(g)            -3.20     -6.30   -3.10  H2
	H2O(g)           -1.50     -0.00    1.50  H2O
	N2(g)            -0.13     -3.30   -3.18  N2
	NH3(g)          -33.96    -32.16    1.80  NH3
	O2(g)           -34.11    -37.01   -2.89  O2


------------------
End of simulation.
------------------

------------------------------------
Reading input data for simulation 3.
------------------------------------

	PRINT
		censor_species		1e-5
	SOLUTION 3 Fixed Carbon, Adj. Na, Fixed pH
		temp 	25.
		units 	mmol/kgw
		pH	8.0
		Na	1.0 	charge
		C	1.0	
		N	1.0
		H(0)	0.001
	END
-------------------------------------------
Beginning of initial solution calculations.
-------------------------------------------

Initial solution 3.	Fixed Carbon, Adj. Na, Fixed pH

-----------------------------Solution composition------------------------------

	Elements           Molality       Moles

	C                 1.000e-03   1.000e-03
	H(0)              1.000e-06   1.000e-06
	N                 1.000e-03   1.000e-03
	Na                9.850e-04   9.850e-04  Charge balance

----------------------------Description of solution----------------------------

                                       pH  =   8.000    
                                       pe  =   4.000    
       Specific Conductance (uS/cm, 25 oC) = 91
                          Density (g/cm3)  =   0.99710
                               Volume (L)  =   1.00305
                        Activity of water  =   1.000
                           Ionic strength  =   9.878e-04
                       Mass of water (kg)  =   1.000e+00
                 Total alkalinity (eq/kg)  =   9.850e-04
                       Total CO2 (mol/kg)  =   1.000e-03
                      Temperature (deg C)  =  25.00
                  Electrical balance (eq)  =   2.566e-18
 Percent error, 100*(Cat-|An|)/(Cat+|An|)  =   0.00
                               Iterations  =  10
                                  Total H  = 1.110134e+02
                                  Total O  = 5.550920e+01

---------------------------------Redox couples---------------------------------

	Redox couple             pe  Eh (volts)

	H(0)/H(1)           -6.4245     -0.3800

----------------------------Distribution of species----------------------------

                                               Log       Log       Log    mole V
   Species          Molality    Activity  Molality  Activity     Gamma   cm3/mol

   OH-             1.049e-06   1.012e-06    -5.979    -5.995    -0.015     -4.11
   H+              1.034e-08   1.000e-08    -7.985    -8.000    -0.015      0.00
   H2O             5.551e+01   1.000e+00     1.744    -0.000     0.000     18.07
C(-4)         0.000e+00
   CH4             0.000e+00   0.000e+00   -76.286   -76.285     0.000     32.22
C(4)          1.000e-03
   HCO3-           9.716e-04   9.382e-04    -3.013    -3.028    -0.015     24.59
   CO2             2.109e-05   2.110e-05    -4.676    -4.676     0.000     30.26
   CO3-2           5.060e-06   4.400e-06    -5.296    -5.357    -0.061     -4.37
   NaHCO3          2.235e-06   2.236e-06    -5.651    -5.651     0.000     19.41
   NaCO3-          1.931e-08   1.865e-08    -7.714    -7.729    -0.015     -0.66
H(0)          1.000e-06
   H2              5.000e-07   5.001e-07    -6.301    -6.301     0.000     28.61
N(-3)         8.422e-31
   NH4+            7.983e-31   7.701e-31   -30.098   -30.113    -0.016     17.96
   NH3             4.387e-32   4.388e-32   -31.358   -31.358     0.000     24.46
N(0)          1.000e-03
   N2              5.000e-04   5.001e-04    -3.301    -3.301     0.000     29.29
N(3)          2.483e-33
   NO2-            2.483e-33   2.396e-33   -32.605   -32.621    -0.016     24.97
N(5)          6.684e-38
   NO3-            6.684e-38   6.449e-38   -37.175   -37.191    -0.016     29.53
Na            9.850e-04
   Na+             9.828e-04   9.488e-04    -3.008    -3.023    -0.015     -1.39
   NaHCO3          2.235e-06   2.236e-06    -5.651    -5.651     0.000     19.41
   NaCO3-          1.931e-08   1.865e-08    -7.714    -7.729    -0.015     -0.66
O(0)          1.663e-38
   O2              8.315e-39   8.317e-39   -38.080   -38.080     0.000     30.40

--------------------------Distribution of alkalinity---------------------------

	Total alkalinity (eq/kgw)  =   9.850e-04

	Species          Alkalinity    Molality   Alk/Mol

	HCO3-             9.716e-04   9.716e-04      1.00
	CO3-2             1.012e-05   5.060e-06      2.00
	NaHCO3            2.235e-06   2.235e-06      1.00
	OH-               1.049e-06   1.049e-06      1.00
	NaCO3-            3.862e-08   1.931e-08      2.00
	H+               -1.034e-08   1.034e-08     -1.00

------------------------------Saturation indices-------------------------------

	Phase               SI   log IAP   log K(298 K,   1 atm)

	CH4(g)          -73.44    -76.29   -2.84  CH4
	CO2(g)           -3.22     -4.68   -1.46  CO2
	H2(g)            -3.20     -6.30   -3.10  H2
	H2O(g)           -1.50     -0.00    1.50  H2O
	N2(g)            -0.13     -3.30   -3.18  N2
	NH3(g)          -33.15    -31.36    1.80  NH3
	O2(g)           -35.19    -38.08   -2.89  O2


------------------
End of simulation.
------------------

------------------------------------
Reading input data for simulation 4.
------------------------------------

	SOLUTION 4 Adj. Carbon, Fixed Na, Fixed pH
		temp 	25.
		units 	mmol/kgw
		pH	8.0
		Na	1.0
		C	1.0 	charge	
		N	1.0
		H(0)	0.001
	END
-------------------------------------------
Beginning of initial solution calculations.
-------------------------------------------

Initial solution 4.	Adj. Carbon, Fixed Na, Fixed pH

-----------------------------Solution composition------------------------------

	Elements           Molality       Moles

	C                 1.015e-03   1.015e-03  Charge balance
	H(0)              1.000e-06   1.000e-06
	N                 1.000e-03   1.000e-03
	Na                1.000e-03   1.000e-03

----------------------------Description of solution----------------------------

                                       pH  =   8.000    
                                       pe  =   4.000    
       Specific Conductance (uS/cm, 25 oC) = 92
                          Density (g/cm3)  =   0.99710
                               Volume (L)  =   1.00305
                        Activity of water  =   1.000
                           Ionic strength  =   1.003e-03
                       Mass of water (kg)  =   1.000e+00
                 Total alkalinity (eq/kg)  =   1.000e-03
                       Total CO2 (mol/kg)  =   1.015e-03
                      Temperature (deg C)  =  25.00
                  Electrical balance (eq)  =  -6.751e-19
 Percent error, 100*(Cat-|An|)/(Cat+|An|)  =  -0.00
                               Iterations  =   9
                                  Total H  = 1.110134e+02
                                  Total O  = 5.550924e+01

---------------------------------Redox couples---------------------------------

	Redox couple             pe  Eh (volts)

	H(0)/H(1)           -6.4245     -0.3800

----------------------------Distribution of species----------------------------

                                               Log       Log       Log    mole V
   Species          Molality    Activity  Molality  Activity     Gamma   cm3/mol

   OH-             1.049e-06   1.012e-06    -5.979    -5.995    -0.016     -4.11
   H+              1.035e-08   1.000e-08    -7.985    -8.000    -0.015      0.00
   H2O             5.551e+01   1.000e+00     1.744    -0.000     0.000     18.07
C(-4)         0.000e+00
   CH4             0.000e+00   0.000e+00   -76.279   -76.279     0.000     32.22
C(4)          1.015e-03
   HCO3-           9.863e-04   9.522e-04    -3.006    -3.021    -0.015     24.59
   CO2             2.141e-05   2.141e-05    -4.669    -4.669     0.000     30.26
   CO3-2           5.141e-06   4.466e-06    -5.289    -5.350    -0.061     -4.37
   NaHCO3          2.303e-06   2.303e-06    -5.638    -5.638     0.000     19.41
   NaCO3-          1.990e-08   1.921e-08    -7.701    -7.717    -0.015     -0.66
H(0)          1.000e-06
   H2              5.000e-07   5.001e-07    -6.301    -6.301     0.000     28.61
N(-3)         8.424e-31
   NH4+            7.985e-31   7.701e-31   -30.098   -30.113    -0.016     17.96
   NH3             4.387e-32   4.388e-32   -31.358   -31.358     0.000     24.46
N(0)          1.000e-03
   N2              5.000e-04   5.001e-04    -3.301    -3.301     0.000     29.29
N(3)          2.484e-33
   NO2-            2.484e-33   2.396e-33   -32.605   -32.621    -0.016     24.97
N(5)          6.686e-38
   NO3-            6.686e-38   6.449e-38   -37.175   -37.191    -0.016     29.53
Na            1.000e-03
   Na+             9.977e-04   9.629e-04    -3.001    -3.016    -0.015     -1.39
   NaHCO3          2.303e-06   2.303e-06    -5.638    -5.638     0.000     19.41
   NaCO3-          1.990e-08   1.921e-08    -7.701    -7.717    -0.015     -0.66
O(0)          1.663e-38
   O2              8.315e-39   8.317e-39   -38.080   -38.080     0.000     30.40

--------------------------Distribution of alkalinity---------------------------

	Total alkalinity (eq/kgw)  =   1.000e-03

	Species          Alkalinity    Molality   Alk/Mol

	HCO3-             9.863e-04   9.863e-04      1.00
	CO3-2             1.028e-05   5.141e-06      2.00
	NaHCO3            2.303e-06   2.303e-06      1.00
	OH-               1.049e-06   1.049e-06      1.00
	NaCO3-            3.979e-08   1.990e-08      2.00
	H+               -1.035e-08   1.035e-08     -1.00

------------------------------Saturation indices-------------------------------

	Phase               SI   log IAP   log K(298 K,   1 atm)

	CH4(g)          -73.44    -76.28   -2.84  CH4
	CO2(g)           -3.21     -4.67   -1.46  CO2
	H2(g)            -3.20     -6.30   -3.10  H2
	H2O(g)           -1.50     -0.00    1.50  H2O
	N2(g)            -0.13     -3.30   -3.18  N2
	NH3(g)          -33.15    -31.36    1.80  NH3
	O2(g)           -35.19    -38.08   -2.89  O2


------------------
End of simulation.
------------------

------------------------------------
Reading input data for simulation 5.
------------------------------------

	SOLUTION 5 Fixed Alkalinity, Fixed Na, Fixed pH
		temp 	25.
		units 	mmol/kgw
		pH	8.0
		Na	1.0
		Alkalinity	1.0
		N	1.0
		H(0)	0.001
	END
-------------------------------------------
Beginning of initial solution calculations.
-------------------------------------------

Initial solution 5.	Fixed Alkalinity, Fixed Na, Fixed pH

-----------------------------Solution composition------------------------------

	Elements           Molality       Moles

	Alkalinity        1.000e-03   1.000e-03
	H(0)              1.000e-06   1.000e-06
	N                 1.000e-03   1.000e-03
	Na                1.000e-03   1.000e-03

----------------------------Description of solution----------------------------

                                       pH  =   8.000    
                                       pe  =   4.000    
       Specific Conductance (uS/cm, 25 oC) = 92
                          Density (g/cm3)  =   0.99710
                               Volume (L)  =   1.00305
                        Activity of water  =   1.000
                           Ionic strength  =   1.003e-03
                       Mass of water (kg)  =   1.000e+00
                    Total carbon (mol/kg)  =   1.015e-03
                       Total CO2 (mol/kg)  =   1.015e-03
                      Temperature (deg C)  =  25.00
                  Electrical balance (eq)  =  -6.751e-19
 Percent error, 100*(Cat-|An|)/(Cat+|An|)  =  -0.00
                               Iterations  =   9
                                  Total H  = 1.110134e+02
                                  Total O  = 5.550924e+01

---------------------------------Redox couples---------------------------------

	Redox couple             pe  Eh (volts)

	H(0)/H(1)           -6.4245     -0.3800

----------------------------Distribution of species----------------------------

                                               Log       Log       Log    mole V
   Species          Molality    Activity  Molality  Activity     Gamma   cm3/mol

   OH-             1.049e-06   1.012e-06    -5.979    -5.995    -0.016     -4.11
   H+              1.035e-08   1.000e-08    -7.985    -8.000    -0.015      0.00
   H2O             5.551e+01   1.000e+00     1.744    -0.000     0.000     18.07
C(4)          1.015e-03
   HCO3-           9.863e-04   9.522e-04    -3.006    -3.021    -0.015     24.59
   CO2             2.141e-05   2.141e-05    -4.669    -4.669     0.000     30.26
   CO3-2           5.141e-06   4.466e-06    -5.289    -5.350    -0.061     -4.37
   NaHCO3          2.303e-06   2.303e-06    -5.638    -5.638     0.000     19.41
   NaCO3-          1.990e-08   1.921e-08    -7.701    -7.717    -0.015     -0.66
H(0)          1.000e-06
   H2              5.000e-07   5.001e-07    -6.301    -6.301     0.000     28.61
N(-3)         8.424e-31
   NH4+            7.985e-31   7.701e-31   -30.098   -30.113    -0.016     17.96
   NH3             4.387e-32   4.388e-32   -31.358   -31.358     0.000     24.46
N(0)          1.000e-03
   N2              5.000e-04   5.001e-04    -3.301    -3.301     0.000     29.29
N(3)          2.484e-33
   NO2-            2.484e-33   2.396e-33   -32.605   -32.621    -0.016     24.97
N(5)          6.686e-38
   NO3-            6.686e-38   6.449e-38   -37.175   -37.191    -0.016     29.53
Na            1.000e-03
   Na+             9.977e-04   9.629e-04    -3.001    -3.016    -0.015     -1.39
   NaHCO3          2.303e-06   2.303e-06    -5.638    -5.638     0.000     19.41
   NaCO3-          1.990e-08   1.921e-08    -7.701    -7.717    -0.015     -0.66
O(0)          1.663e-38
   O2              8.315e-39   8.317e-39   -38.080   -38.080     0.000     30.40

--------------------------Distribution of alkalinity---------------------------

	Total alkalinity (eq/kgw)  =   1.000e-03

	Species          Alkalinity    Molality   Alk/Mol

	HCO3-             9.863e-04   9.863e-04      1.00
	CO3-2             1.028e-05   5.141e-06      2.00
	NaHCO3            2.303e-06   2.303e-06      1.00
	OH-               1.049e-06   1.049e-06      1.00
	NaCO3-            3.979e-08   1.990e-08      2.00
	H+               -1.035e-08   1.035e-08     -1.00

------------------------------Saturation indices-------------------------------

	Phase               SI   log IAP   log K(298 K,   1 atm)

	CO2(g)           -3.21     -4.67   -1.46  CO2
	H2(g)            -3.20     -6.30   -3.10  H2
	H2O(g)           -1.50     -0.00    1.50  H2O
	N2(g)            -0.13     -3.30   -3.18  N2
	NH3(g)          -33.15    -31.36    1.80  NH3
	O2(g)           -35.19    -38.08   -2.89  O2


------------------
End of simulation.
------------------

------------------------------------
Reading input data for simulation 6.
------------------------------------

	SOLUTION 6 Fixed Alkalinity, Adj. Na, Fixed pH
		temp 	25.
		units 	mmol/kgw
		pH	8.0
		Na	1.0 	charge
		Alkalinity	1.0
		N	1.0
		H(0)	0.001
	END
-------------------------------------------
Beginning of initial solution calculations.
-------------------------------------------

Initial solution 6.	Fixed Alkalinity, Adj. Na, Fixed pH

-----------------------------Solution composition------------------------------

	Elements           Molality       Moles

	Alkalinity        1.000e-03   1.000e-03
	H(0)              1.000e-06   1.000e-06
	N                 1.000e-03   1.000e-03
	Na                1.000e-03   1.000e-03  Charge balance

----------------------------Description of solution----------------------------

                                       pH  =   8.000    
                                       pe  =   4.000    
       Specific Conductance (uS/cm, 25 oC) = 92
                          Density (g/cm3)  =   0.99710
                               Volume (L)  =   1.00305
                        Activity of water  =   1.000
                           Ionic strength  =   1.003e-03
                       Mass of water (kg)  =   1.000e+00
                    Total carbon (mol/kg)  =   1.015e-03
                       Total CO2 (mol/kg)  =   1.015e-03
                      Temperature (deg C)  =  25.00
                  Electrical balance (eq)  =   1.923e-19
 Percent error, 100*(Cat-|An|)/(Cat+|An|)  =   0.00
                               Iterations  =  10
                                  Total H  = 1.110134e+02
                                  Total O  = 5.550924e+01

---------------------------------Redox couples---------------------------------

	Redox couple             pe  Eh (volts)

	H(0)/H(1)           -6.4245     -0.3800

----------------------------Distribution of species----------------------------

                                               Log       Log       Log    mole V
   Species          Molality    Activity  Molality  Activity     Gamma   cm3/mol

   OH-             1.049e-06   1.012e-06    -5.979    -5.995    -0.016     -4.11
   H+              1.035e-08   1.000e-08    -7.985    -8.000    -0.015      0.00
   H2O             5.551e+01   1.000e+00     1.744    -0.000     0.000     18.07
C(4)          1.015e-03
   HCO3-           9.863e-04   9.522e-04    -3.006    -3.021    -0.015     24.59
   CO2             2.141e-05   2.141e-05    -4.669    -4.669     0.000     30.26
   CO3-2           5.141e-06   4.466e-06    -5.289    -5.350    -0.061     -4.37
   NaHCO3          2.303e-06   2.303e-06    -5.638    -5.638     0.000     19.41
   NaCO3-          1.990e-08   1.921e-08    -7.701    -7.717    -0.015     -0.66
H(0)          1.000e-06
   H2              5.000e-07   5.001e-07    -6.301    -6.301     0.000     28.61
N(-3)         8.424e-31
   NH4+            7.985e-31   7.701e-31   -30.098   -30.113    -0.016     17.96
   NH3             4.387e-32   4.388e-32   -31.358   -31.358     0.000     24.46
N(0)          1.000e-03
   N2              5.000e-04   5.001e-04    -3.301    -3.301     0.000     29.29
N(3)          2.484e-33
   NO2-            2.484e-33   2.396e-33   -32.605   -32.621    -0.016     24.97
N(5)          6.686e-38
   NO3-            6.686e-38   6.449e-38   -37.175   -37.191    -0.016     29.53
Na            1.000e-03
   Na+             9.977e-04   9.629e-04    -3.001    -3.016    -0.015     -1.39
   NaHCO3          2.303e-06   2.303e-06    -5.638    -5.638     0.000     19.41
   NaCO3-          1.990e-08   1.921e-08    -7.701    -7.717    -0.015     -0.66
O(0)          1.663e-38
   O2              8.315e-39   8.317e-39   -38.080   -38.080     0.000     30.40

--------------------------Distribution of alkalinity---------------------------

	Total alkalinity (eq/kgw)  =   1.000e-03

	Species          Alkalinity    Molality   Alk/Mol

	HCO3-             9.863e-04   9.863e-04      1.00
	CO3-2             1.028e-05   5.141e-06      2.00
	NaHCO3            2.303e-06   2.303e-06      1.00
	OH-               1.049e-06   1.049e-06      1.00
	NaCO3-            3.979e-08   1.990e-08      2.00
	H+               -1.035e-08   1.035e-08     -1.00

------------------------------Saturation indices-------------------------------

	Phase               SI   log IAP   log K(298 K,   1 atm)

	CO2(g)           -3.21     -4.67   -1.46  CO2
	H2(g)            -3.20     -6.30   -3.10  H2
	H2O(g)           -1.50     -0.00    1.50  H2O
	N2(g)            -0.13     -3.30   -3.18  N2
	NH3(g)          -33.15    -31.36    1.80  NH3
	O2(g)           -35.19    -38.08   -2.89  O2


------------------
End of simulation.
------------------

------------------------------------
Reading input data for simulation 7.
------------------------------------

	SOLUTION 7 Fixed Alkalinity, Fixed C, Fixed Na, Adj. pH
		temp 	25.
		units 	mmol/kgw
		pH	8.0
		Na	1.0
		Alkalinity	1.0
		C	1.0
		N	1.0
		H(0)	0.001
	END
-------------------------------------------
Beginning of initial solution calculations.
-------------------------------------------

Initial solution 7.	Fixed Alkalinity, Fixed C, Fixed Na, Adj. pH


pH will be adjusted to obtain desired alkalinity.

-----------------------------Solution composition------------------------------

	Elements           Molality       Moles

	Alkalinity        1.000e-03   1.000e-03
	C                 1.000e-03   1.000e-03
	H(0)              1.000e-06   1.000e-06
	N                 1.000e-03   1.000e-03
	Na                1.000e-03   1.000e-03

----------------------------Description of solution----------------------------

                                       pH  =   8.268      Adjust alkalinity
                                       pe  =   4.000    
       Specific Conductance (uS/cm, 25 oC) = 92
                          Density (g/cm3)  =   0.99710
                               Volume (L)  =   1.00305
                        Activity of water  =   1.000
                           Ionic strength  =   1.007e-03
                       Mass of water (kg)  =   1.000e+00
                       Total CO2 (mol/kg)  =   1.000e-03
                      Temperature (deg C)  =  25.00
                  Electrical balance (eq)  =  -2.880e-19
 Percent error, 100*(Cat-|An|)/(Cat+|An|)  =  -0.00
                               Iterations  =   9
                                  Total H  = 1.110134e+02
                                  Total O  = 5.550921e+01

---------------------------------Redox couples---------------------------------

	Redox couple             pe  Eh (volts)

	H(0)/H(1)           -6.6929     -0.3959

----------------------------Distribution of species----------------------------

                                               Log       Log       Log    mole V
   Species          Molality    Activity  Molality  Activity     Gamma   cm3/mol

   OH-             1.946e-06   1.878e-06    -5.711    -5.726    -0.016     -4.11
   H+              5.577e-09   5.390e-09    -8.254    -8.268    -0.015      0.00
   H2O             5.551e+01   1.000e+00     1.744    -0.000     0.000     18.07
C(-4)         0.000e+00
   CH4             0.000e+00   0.000e+00   -78.699   -78.699     0.000     32.22
C(4)          1.000e-03
   HCO3-           9.768e-04   9.429e-04    -3.010    -3.026    -0.015     24.59
   CO2             1.143e-05   1.143e-05    -4.942    -4.942     0.000     30.26
   CO3-2           9.448e-06   8.204e-06    -5.025    -5.086    -0.061     -4.37
   NaHCO3          2.280e-06   2.281e-06    -5.642    -5.642     0.000     19.41
   NaCO3-          3.655e-08   3.528e-08    -7.437    -7.452    -0.015     -0.66
H(0)          1.000e-06
   H2              5.000e-07   5.001e-07    -6.301    -6.301     0.000     28.61
N(-3)         7.428e-32
   NH4+            6.741e-32   6.500e-32   -31.171   -31.187    -0.016     17.96
   NH3             6.871e-33   6.872e-33   -32.163   -32.163     0.000     24.46
N(0)          1.000e-03
   N2              5.000e-04   5.001e-04    -3.301    -3.301     0.000     29.29
N(3)          2.943e-32
   NO2-            2.943e-32   2.839e-32   -31.531   -31.547    -0.016     24.97
N(5)          2.726e-36
   NO3-            2.726e-36   2.630e-36   -35.564   -35.580    -0.016     29.53
Na            1.000e-03
   Na+             9.977e-04   9.628e-04    -3.001    -3.016    -0.015     -1.39
   NaHCO3          2.280e-06   2.281e-06    -5.642    -5.642     0.000     19.41
   NaCO3-          3.655e-08   3.528e-08    -7.437    -7.452    -0.015     -0.66
O(0)          1.970e-37
   O2              9.851e-38   9.853e-38   -37.007   -37.006     0.000     30.40

--------------------------Distribution of alkalinity---------------------------

	Total alkalinity (eq/kgw)  =   1.000e-03

	Species          Alkalinity    Molality   Alk/Mol

	HCO3-             9.768e-04   9.768e-04      1.00
	CO3-2             1.890e-05   9.448e-06      2.00
	NaHCO3            2.280e-06   2.280e-06      1.00
	OH-               1.946e-06   1.946e-06      1.00
	NaCO3-            7.310e-08   3.655e-08      2.00

------------------------------Saturation indices-------------------------------

	Phase               SI   log IAP   log K(298 K,   1 atm)

	CH4(g)          -75.86    -78.70   -2.84  CH4
	CO2(g)           -3.48     -4.94   -1.46  CO2
	H2(g)            -3.20     -6.30   -3.10  H2
	H2O(g)           -1.50     -0.00    1.50  H2O
	N2(g)            -0.13     -3.30   -3.18  N2
	NH3(g)          -33.96    -32.16    1.80  NH3
	O2(g)           -34.11    -37.01   -2.89  O2


------------------
End of simulation.
------------------

------------------------------------
Reading input data for simulation 8.
------------------------------------

------------------------------
End of Run after 0.02 Seconds.
------------------------------

