WARNING: Database file from DATABASE keyword is used; command line argument ignored.
   Input file: andsurfcomplex4
  Output file: andsurfcomplex4.out
Database file: ../database/phreeqc.dat

------------------
Reading data base.
------------------

	SOLUTION_MASTER_SPECIES
	SOLUTION_SPECIES
	PHASES
	EXCHANGE_MASTER_SPECIES
	EXCHANGE_SPECIES
	SURFACE_MASTER_SPECIES
	SURFACE_SPECIES
	MEAN_GAMMAS
	RATES
	END
------------------------------------
Reading input data for simulation 1.
------------------------------------

	DATABASE ../database/phreeqc.dat
	SELECTED_OUTPUT 101
	    file                 andsurfcomplex4_101.sel
	USER_PUNCH 101
	    headings Mu SC
	    start
	10 PUNCH STR_F$(MU, 20, 12)
	20 PUNCH STR_F$(SC, 20, 10)
	    end
	TITLE Example 22.--Compare experimental CO2 solubilities at high CO2 pressure 
	   with Peng-Robinson calc'ns with fixed-volume gas_phase, 39.
	SURFACE_MASTER_SPECIES
	    Oil_s           Oil_sNH+
	    Oil_w           Oil_wCOOH
	    Ca_s          Ca_sOH
	    Ca_w          Ca_wCO3H
	SURFACE_SPECIES
	Oil_sNH+ = Oil_sNH+
	    log_k     0
	Oil_wCOOH = Oil_wCOOH
	    log_k     0
	Ca_sOH = Ca_sOH
	    log_k     0
	Ca_wCO3H = Ca_wCO3H
	    log_k     0
	Oil_sNH+ = Oil_sN + H+
	    log_k     -6.0
	Oil_wCOOH = Oil_wCOO-1 + H+
	    log_k     -5.0
	Oil_wCOOH + Ca+2 = Oil_wCOOCa+ + H+
	    log_k     -3.8
	Ca_sOH + H+ = Ca_sOH2+
	    log_k     11.8
	Ca_sOH + HCO3- = Ca_sCO3- + H2O
	    log_k     5.8
	Ca_wCO3H = Ca_wCO3- +H+
	    log_k     -5.1
	Ca_wCO3H + Ca+2 = Ca_wCO3Ca+ + H+
	    log_k    -2.6
	 SURFACE 1
	Oil_sNH+ 1.67e-6  600. 0.09
	Oil_wCOOH 1.67e-6
	Ca_sOH   1.0e-6   600.  0.09
	Ca_wCO3H  1.0e-6
	END
-----
TITLE
-----

 Example 22.--Compare experimental CO2 solubilities at high CO2 pressure 
   with Peng-Robinson calc'ns with fixed-volume gas_phase, 39.

------------------
End of simulation.
------------------

------------------------------------
Reading input data for simulation 2.
------------------------------------

	 GAS_PHASE 1
	  REACTION 1
	CO2 1  
	 0.0001 0.0002 0.0003 0.0004 0.0005 0.0006 0.0007 0.0008 0.0009 
	         0.001 0.0011 0.0012 0.0013 0.0014 0.0015 0.0016 0.0017 0.0018 0.0019  0.0020          0.0025 0.0030 0.0035 0.0040 0.0045 0.0050 0.0055  0.0060 0.0065 0.0070 0.0075 0.0080 0.0085 0.0090          0.01 0.015 0.02 0.03 0.04 0.05 0.06 0.07 0.09 0.11 0.13 0.145 0.16               0.18  0.22 0.24 0.26 0.3 0.4 0.5 0.8 1.2 1.7 2.3 3.0 3.8 4.7
	 INCREMENTAL_REACTIONS true
	SELECTED_OUTPUT
	        file   ex22bnew.sel
	USER_PUNCH 1
	headings cwa, density, rhoo,  GA,  H+, Na+, Cl-,  OH-,  HCO3-,  CO3-2,  CaCO3,  CaHCO3+,  CO2,  Ca+2,  CaOH+, NaCO3-,  NaHCO3, Ckapone, Ckaptwo, Ckapthree, Ckapfour, Ckapfive, Ckapsix, ominh, cooil, coco2,  Oil_sNH+, Oil_sN,                  Oil_wCOOH, Oil_wCOO-, Oil_wCOOCa+, Ca_sOH, Ca_wCO3H, Ca_sOH2+, Ca_sCO3-, Ca_wCO3-, Ca_wCO3Ca+, EDL_oil, EDL_Ca  
	5         GA = 0.001 * (1000 +  MOL("H+") * GFW("H+") + MOL("Na+")*GFW("Na+")+ MOL("Cl-")*GFW("Cl-")+ MOL("OH-")* GFW("OH-")+                 MOL("HCO3-")*GFW("HCO3-")+                 MOL("CO3-2")* GFW("CO3-2")+ MOL("CaCO3") * GFW("CaCO3")+                 MOL("CaHCO3+") * GFW("CaHCO3+")+  MOL("CO2") * GFW("CO2")+                 MOL("Ca+2") * GFW("Ca+2")+ MOL("CaOH+")*GFW("CaOH+")+                 MOL("NaCO3-") * GFW("NaCO3-")+ MOL("NaHCO3") * GFW("NaHCO3")) / RHO
	6 carb = MOL("HCO3-") + MOL("CO3-2") + MOL("CaCO3") + MOL("CaHCO3+") + MOL("CO2") +        MOL("NaCO3-") + MOL("NaHCO3") 
	7 hydr = MOL("H+")  + MOL("OH-") + MOL("HCO3-") + MOL("CaHCO3+") +          MOL("CaOH+") + MOL("NaHCO3") 
	8 oxyg = MOL("OH-") + 3.0 * MOL("HCO3-") + 3.0 * MOL("CO3-2") + 3.0 * MOL("CaCO3") +         3.0 * MOL("CaHCO3+") + 2.0 * MOL("CO2") + MOL("CaOH+") +         3.0 * MOL("NaCO3-")  + 3.0 * MOL("NaHCO3") 
	9 calc = MOL("CaCO3") + MOL("CaHCO3+") + MOL("Ca+2") + MOL("CaOH+")
	10 natr = MOL("Na+") + MOL("NaCO3-") +  MOL("NaHCO3") 
	11 chlr = MOL("Cl-")
	12 ominh = 2* oxyg - hydr
	13 coco2 = 2.5 * MOL("CO2") / GA
	14 if coco2 > 18 then coco2 = 18.0
	15 cooil = (1.0 - coco2 / 18.44) * 4.9605 : rem corrected formula
	16 rhoo = coco2 + cooil
	25 cwa = 1.0 / GA / 0.018
	26 PUNCH cwa, RHO, rhoo,  GA, log(MOL("H+") / GA) , log(MOL("Na+")/GA), log(MOL("Cl-")/GA), log(MOL("OH-")/ GA),                 log(MOL("HCO3-")/GA),                 log(MOL("CO3-2")/ GA), log(MOL("CaCO3") / GA),                 log(MOL("CaHCO3+") / GA),  log(MOL("CO2") / GA),                 log(MOL("Ca+2") / GA), log(MOL("CaOH+")/GA),                 log(MOL("NaCO3-") / GA), log(MOL("NaHCO3") / GA),                 log (carb / GA), log (hydr / GA), log (oxyg / GA), log (calc / GA),                 log (natr / GA), log (chlr / GA), log(ominh /GA), log (cooil), log(coco2), log( MOL("Oil_sNH+") / GA), log( MOL("Oil_sN")/ GA),                log(MOL("Oil_wCOOH") / GA), log(MOL("Oil_wCOO-") / GA), log(MOL("Oil_wCOOCa+") / GA),                 log(MOL("Ca_sOH") / GA), log(MOL("Ca_wCO3H") /GA), log(MOL("Ca_sOH2+")/GA), log(MOL("Ca_sCO3-")/GA),                  log( MOL("Ca_wCO3-")/GA), log(MOL("Ca_wCO3Ca+")/GA) , EDL("Charge", "Oil"), EDL("Charge", "Ca")
	END
------------------
End of simulation.
------------------

------------------------------------
Reading input data for simulation 3.
------------------------------------

	print
	 reset false
WARNING: Maximum iterations exceeded, 100

WARNING: Numerical method failed with this set of convergence parameters.

WARNING: Trying smaller step size, pe step size 10, 5 ... 

WARNING: Maximum iterations exceeded, 100

WARNING: Numerical method failed with this set of convergence parameters.

WARNING: Trying smaller step size, pe step size 10, 5 ... 

