   Input file: anhy_NaCl
  Output file: anhy_NaCl.out
Database file: ../database/pitzer.dat

------------------
Reading data base.
------------------

	SOLUTION_MASTER_SPECIES
	SOLUTION_SPECIES
	PHASES
	PITZER
	EXCHANGE_MASTER_SPECIES
	EXCHANGE_SPECIES
	SURFACE_MASTER_SPECIES
	SURFACE_SPECIES
	END
------------------------------------
Reading input data for simulation 1.
------------------------------------

	DATABASE ../database/pitzer.dat
	PRINT
	 warnings 0
	 echo_input false
	END
------------------
End of simulation.
------------------

------------------------------------
Reading input data for simulation 2.
------------------------------------

	SOLUTION 1
	pH 7 charge
	temp 100
	EQUILIBRIUM_PHASES 1
	Anhydrite
	Halite 0 0
	REACTION 1
	NaCl 1
	 0 1e-5 5*0.02 0.1 4*0.2 16*0.5
	INCREMENTAL_REACTIONS true
	USER_GRAPH
	-chart_title "Anhydrite solubility"
	-axis_titles "NaCl / (mol/kgw)" "CaSO4 / (mol/kgw)"
	-axis_scale x_axis 0 8.5
	-plot_tsv_file anh_nacl.csv
	-connect_simulations false
	10 graph_x tot("Na")
	20 graph_y tot("Ca")
	END
-------------------------------------------
Beginning of initial solution calculations.
-------------------------------------------

Initial solution 1.	

-----------------------------Solution composition------------------------------

	Elements           Molality       Moles

	Pure water     

----------------------------Description of solution----------------------------

                                       pH  =   6.119      Charge balance
                                       pe  =   4.000    
       Specific Conductance (uS/cm, 100 oC) = 1
                          Density (g/cm3)  =   0.95835
                               Volume (L)  =   1.04346
                        Activity of water  =   1.000
                           Ionic strength  =  7.610e-007
                       Mass of water (kg)  =  1.000e+000
                 Total alkalinity (eq/kg)  =  0.000e+000
                    Total carbon (mol/kg)  =  0.000e+000
                       Total CO2 (mol/kg)  =  0.000e+000
                      Temperature (deg C)  = 100.00
                  Electrical balance (eq)  =  0.000e+000
 Percent error, 100*(Cat-|An|)/(Cat+|An|)  =   0.00
                               Iterations  =   7
                         Gamma iterations  =   2
                      Osmotic coefficient  =   0.99960
                         Density of water  =   0.95835
                                  Total H  = 1.110124e+002
                                  Total O  = 5.550622e+001

----------------------------Distribution of species----------------------------

                                                    MacInnes  MacInnes
                                MacInnes       Log       Log       Log    mole V
   Species          Molality    Activity  Molality  Activity     Gamma   cm3/mol

   OH-            7.610e-007  7.601e-007    -6.119    -6.119    -0.001     -5.96
   H+             7.610e-007  7.601e-007    -6.119    -6.119    -0.001      0.00
   H2O            5.551e+001  1.000e+000     1.744    -0.000     0.000     18.80

------------------------------Saturation indices-------------------------------

	Phase               SI** log IAP   log K(373 K,   1 atm)

	H2O(g)           -0.00     -0.00    0.00  H2O

**For a gas, SI = log10(fugacity). For ideal gases, fugacity = pressure / 1 atm.
For a Peng-Robinson gas, fugacity = pressure * phi / 1 atm

-----------------------------------------
Beginning of batch-reaction calculations.
-----------------------------------------

Reaction step 1.

Using solution 1.	
Using pure phase assemblage 1.	
Using reaction 1.	

Reaction 1.	

	 0.000e+000 moles of the following reaction have been added:

	                 Relative
	Reactant            moles

	NaCl                 1.00000

	                 Relative
	Element             moles
	Cl                   1.00000
	Na                   1.00000

-------------------------------Phase assemblage--------------------------------

                                                      Moles in assemblage
Phase               SI  log IAP  log K(T, P)   Initial       Final       Delta

Anhydrite         0.00    -5.36     -5.36   1.000e+001  9.995e+000 -5.319e-003
Halite               Element not present.   0.000e+000           0  0.000e+000

-----------------------------Solution composition------------------------------

	Elements           Molality       Moles

	Ca               5.319e-003  5.319e-003
	S                5.319e-003  5.319e-003

----------------------------Description of solution----------------------------

                                       pH  =   6.347      Charge balance
                                       pe  =   4.000      Adjusted to redox equilibrium
       Specific Conductance (uS/cm, 100 oC) = 3153
                          Density (g/cm3)  =   0.95907
                               Volume (L)  =   1.04379
                        Activity of water  =   1.000
                           Ionic strength  =  2.128e-002
                       Mass of water (kg)  =  1.000e+000
                 Total alkalinity (eq/kg)  = -1.336e-018
                    Total carbon (mol/kg)  =  0.000e+000
                       Total CO2 (mol/kg)  =  0.000e+000
                      Temperature (deg C)  = 100.00
                  Electrical balance (eq)  = -3.466e-014
 Percent error, 100*(Cat-|An|)/(Cat+|An|)  =  -0.00
                               Iterations  =  13
                         Gamma iterations  =   4
                      Osmotic coefficient  =   0.70435
                         Density of water  =   0.95835
                                  Total H  = 1.110124e+002
                                  Total O  = 5.552749e+001

----------------------------Distribution of species----------------------------

                                                    MacInnes  MacInnes
                                MacInnes       Log       Log       Log    mole V
   Species          Molality    Activity  Molality  Activity     Gamma   cm3/mol

   OH-            1.564e-006  1.283e-006    -5.806    -5.892    -0.086     -5.64
   H+             5.324e-007  4.502e-007    -6.274    -6.347    -0.073      0.00
   H2O            5.551e+001  9.999e-001     1.744    -0.000     0.000     18.80
Ca           5.319e-003
   Ca+2           5.319e-003  2.090e-003    -2.274    -2.680    -0.406    -19.08
S(6)         5.319e-003
   SO4-2          5.318e-003  2.073e-003    -2.274    -2.683    -0.409     12.96
   HSO4-          1.031e-006  8.890e-007    -5.987    -6.051    -0.065     40.96

------------------------------Saturation indices-------------------------------

	Phase               SI** log IAP   log K(373 K,   1 atm)

	Anhydrite         0.00     -5.36   -5.36  CaSO4
	Gypsum           -0.41     -5.36   -4.95  CaSO4:2H2O
	H2O(g)           -0.01     -0.00    0.00  H2O
	Portlandite      -9.27    -14.46   -5.19  Ca(OH)2

**For a gas, SI = log10(fugacity). For ideal gases, fugacity = pressure / 1 atm.
For a Peng-Robinson gas, fugacity = pressure * phi / 1 atm

Reaction step 2.

Using solution 1.	
Using pure phase assemblage 1.	
Using reaction 1.	

Reaction 1.	

	 1.000e-005 moles of the following reaction have been added:

	                 Relative
	Reactant            moles

	NaCl                 1.00000

	                 Relative
	Element             moles
	Cl                   1.00000
	Na                   1.00000

-------------------------------Phase assemblage--------------------------------

                                                      Moles in assemblage
Phase               SI  log IAP  log K(T, P)   Initial       Final       Delta

Anhydrite         0.00    -5.36     -5.36   9.995e+000  9.995e+000 -9.342e-007
Halite          -11.73   -10.14      1.59   0.000e+000           0  0.000e+000

-----------------------------Solution composition------------------------------

	Elements           Molality       Moles

	Ca               5.320e-003  5.320e-003
	Cl               1.000e-005  1.000e-005
	Na               1.000e-005  1.000e-005
	S                5.320e-003  5.320e-003

----------------------------Description of solution----------------------------

                                       pH  =   6.347      Charge balance
                                       pe  =   4.000      Adjusted to redox equilibrium
       Specific Conductance (uS/cm, 100 oC) = 3157
                          Density (g/cm3)  =   0.95907
                               Volume (L)  =   1.04379
                        Activity of water  =   1.000
                           Ionic strength  =  2.129e-002
                       Mass of water (kg)  =  1.000e+000
                 Total alkalinity (eq/kg)  = -4.912e-018
                    Total carbon (mol/kg)  =  0.000e+000
                       Total CO2 (mol/kg)  =  0.000e+000
                      Temperature (deg C)  = 100.00
                  Electrical balance (eq)  = -3.749e-014
 Percent error, 100*(Cat-|An|)/(Cat+|An|)  =  -0.00
                               Iterations  =   3
                         Gamma iterations  =   2
                      Osmotic coefficient  =   0.70478
                         Density of water  =   0.95835
                                  Total H  = 1.110124e+002
                                  Total O  = 5.552750e+001

----------------------------Distribution of species----------------------------

                                                    MacInnes  MacInnes
                                MacInnes       Log       Log       Log    mole V
   Species          Molality    Activity  Molality  Activity     Gamma   cm3/mol

   OH-            1.564e-006  1.283e-006    -5.806    -5.892    -0.086     -5.64
   H+             5.324e-007  4.502e-007    -6.274    -6.347    -0.073      0.00
   H2O            5.551e+001  9.999e-001     1.744    -0.000     0.000     18.80
Ca           5.320e-003
   Ca+2           5.320e-003  2.090e-003    -2.274    -2.680    -0.406    -19.08
Cl           1.000e-005
   Cl-            1.000e-005  8.455e-006    -5.000    -5.073    -0.073     16.40
Na           1.000e-005
   Na+            1.000e-005  8.563e-006    -5.000    -5.067    -0.067      0.50
S(6)         5.320e-003
   SO4-2          5.319e-003  2.073e-003    -2.274    -2.683    -0.409     12.96
   HSO4-          1.031e-006  8.890e-007    -5.987    -6.051    -0.065     40.96

------------------------------Saturation indices-------------------------------

	Phase               SI** log IAP   log K(373 K,   1 atm)

	Anhydrite         0.00     -5.36   -5.36  CaSO4
	Glauberite      -11.52    -18.18   -6.66  Na2Ca(SO4)2
	Gypsum           -0.41     -5.36   -4.95  CaSO4:2H2O
	H2O(g)           -0.01     -0.00    0.00  H2O
	Halite          -11.73    -10.14    1.59  NaCl
	Labile_S        -25.33    -31.00   -5.67  Na4Ca(SO4)3:2H2O
	Mirabilite      -13.15    -12.82    0.33  Na2SO4:10H2O
	Portlandite      -9.27    -14.46   -5.19  Ca(OH)2
	Thenardite      -12.10    -12.82   -0.72  Na2SO4

**For a gas, SI = log10(fugacity). For ideal gases, fugacity = pressure / 1 atm.
For a Peng-Robinson gas, fugacity = pressure * phi / 1 atm

Reaction step 3.

Using solution 1.	
Using pure phase assemblage 1.	
Using reaction 1.	

Reaction 1.	

	 2.000e-002 moles of the following reaction have been added:

	                 Relative
	Reactant            moles

	NaCl                 1.00000

	                 Relative
	Element             moles
	Cl                   1.00000
	Na                   1.00000

-------------------------------Phase assemblage--------------------------------

                                                      Moles in assemblage
Phase               SI  log IAP  log K(T, P)   Initial       Final       Delta

Anhydrite         0.00    -5.36     -5.36   9.995e+000  9.993e+000 -1.429e-003
Halite           -5.18    -3.59      1.59   0.000e+000           0  0.000e+000

-----------------------------Solution composition------------------------------

	Elements           Molality       Moles

	Ca               6.749e-003  6.749e-003
	Cl               2.001e-002  2.001e-002
	Na               2.001e-002  2.001e-002
	S                6.749e-003  6.749e-003

----------------------------Description of solution----------------------------

                                       pH  =   6.345      Charge balance
                                       pe  =   4.000      Adjusted to redox equilibrium
       Specific Conductance (uS/cm, 100 oC) = 10576
                          Density (g/cm3)  =   0.96007
                               Volume (L)  =   1.04422
                        Activity of water  =   0.999
                           Ionic strength  =  4.701e-002
                       Mass of water (kg)  =  1.000e+000
                 Total alkalinity (eq/kg)  =  3.487e-017
                    Total carbon (mol/kg)  =  0.000e+000
                       Total CO2 (mol/kg)  =  0.000e+000
                      Temperature (deg C)  = 100.00
                  Electrical balance (eq)  = -4.154e-012
 Percent error, 100*(Cat-|An|)/(Cat+|An|)  =  -0.00
                               Iterations  =  13
                         Gamma iterations  =   4
                      Osmotic coefficient  =   0.86740
                         Density of water  =   0.95835
                                  Total H  = 1.110124e+002
                                  Total O  = 5.553321e+001

----------------------------Distribution of species----------------------------

                                                    MacInnes  MacInnes
                                MacInnes       Log       Log       Log    mole V
   Species          Molality    Activity  Molality  Activity     Gamma   cm3/mol

   OH-            1.668e-006  1.278e-006    -5.778    -5.894    -0.116     -5.47
   H+             5.673e-007  4.517e-007    -6.246    -6.345    -0.099      0.00
   H2O            5.551e+001  9.992e-001     1.744    -0.000     0.000     18.80
Ca           6.749e-003
   Ca+2           6.749e-003  2.098e-003    -2.171    -2.678    -0.507    -18.74
Cl           2.001e-002
   Cl-            2.001e-002  1.590e-002    -1.699    -1.799    -0.100     16.54
Na           2.001e-002
   Na+            2.001e-002  1.613e-002    -1.699    -1.792    -0.094      0.60
S(6)         6.749e-003
   SO4-2          6.748e-003  2.065e-003    -2.171    -2.685    -0.514     13.29
   HSO4-          1.101e-006  8.885e-007    -5.958    -6.051    -0.093     41.10

------------------------------Saturation indices-------------------------------

	Phase               SI** log IAP   log K(373 K,   1 atm)

	Anhydrite         0.00     -5.36   -5.36  CaSO4
	Glauberite       -4.97    -11.63   -6.66  Na2Ca(SO4)2
	Gypsum           -0.41     -5.36   -4.95  CaSO4:2H2O
	H2O(g)           -0.01     -0.00    0.00  H2O
	Halite           -5.18     -3.59    1.59  NaCl
	Labile_S        -12.23    -17.90   -5.67  Na4Ca(SO4)3:2H2O
	Mirabilite       -6.61     -6.27    0.33  Na2SO4:10H2O
	Portlandite      -9.28    -14.47   -5.19  Ca(OH)2
	Thenardite       -5.55     -6.27   -0.72  Na2SO4

**For a gas, SI = log10(fugacity). For ideal gases, fugacity = pressure / 1 atm.
For a Peng-Robinson gas, fugacity = pressure * phi / 1 atm

Reaction step 4.

Using solution 1.	
Using pure phase assemblage 1.	
Using reaction 1.	

Reaction 1.	

	 2.000e-002 moles of the following reaction have been added:

	                 Relative
	Reactant            moles

	NaCl                 1.00000

	                 Relative
	Element             moles
	Cl                   1.00000
	Na                   1.00000

-------------------------------Phase assemblage--------------------------------

                                                      Moles in assemblage
Phase               SI  log IAP  log K(T, P)   Initial       Final       Delta

Anhydrite         0.00    -5.36     -5.36   9.993e+000  9.992e+000 -1.030e-003
Halite           -4.61    -3.02      1.59   0.000e+000           0  0.000e+000

-----------------------------Solution composition------------------------------

	Elements           Molality       Moles

	Ca               7.779e-003  7.779e-003
	Cl               4.001e-002  4.001e-002
	Na               4.001e-002  4.001e-002
	S                7.779e-003  7.779e-003

----------------------------Description of solution----------------------------

                                       pH  =   6.343      Charge balance
                                       pe  =   4.000      Adjusted to redox equilibrium
       Specific Conductance (uS/cm, 100 oC) = 17531
                          Density (g/cm3)  =   0.96100
                               Volume (L)  =   1.04463
                        Activity of water  =   0.998
                           Ionic strength  =  7.113e-002
                       Mass of water (kg)  =  1.000e+000
                 Total alkalinity (eq/kg)  =  3.915e-017
                    Total carbon (mol/kg)  =  0.000e+000
                       Total CO2 (mol/kg)  =  0.000e+000
                      Temperature (deg C)  = 100.00
                  Electrical balance (eq)  = -4.897e-012
 Percent error, 100*(Cat-|An|)/(Cat+|An|)  =  -0.00
                               Iterations  =  10
                         Gamma iterations  =   4
                      Osmotic coefficient  =   0.88152
                         Density of water  =   0.95835
                                  Total H  = 1.110124e+002
                                  Total O  = 5.553733e+001

----------------------------Distribution of species----------------------------

                                                    MacInnes  MacInnes
                                MacInnes       Log       Log       Log    mole V
   Species          Molality    Activity  Molality  Activity     Gamma   cm3/mol

   OH-            1.730e-006  1.269e-006    -5.762    -5.896    -0.135     -5.34
   H+             5.904e-007  4.544e-007    -6.229    -6.343    -0.114      0.00
   H2O            5.551e+001  9.985e-001     1.744    -0.001     0.000     18.80
Ca           7.779e-003
   Ca+2           7.779e-003  2.123e-003    -2.109    -2.673    -0.564    -18.53
Cl           4.001e-002
   Cl-            4.001e-002  3.060e-002    -1.398    -1.514    -0.117     16.63
Na           4.001e-002
   Na+            4.001e-002  3.111e-002    -1.398    -1.507    -0.109      0.66
S(6)         7.779e-003
   SO4-2          7.778e-003  2.041e-003    -2.109    -2.690    -0.581     13.52
   HSO4-          1.140e-006  8.833e-007    -5.943    -6.054    -0.111     41.19

------------------------------Saturation indices-------------------------------

	Phase               SI** log IAP   log K(373 K,   1 atm)

	Anhydrite         0.00     -5.36   -5.36  CaSO4
	Glauberite       -4.40    -11.07   -6.66  Na2Ca(SO4)2
	Gypsum           -0.41     -5.36   -4.95  CaSO4:2H2O
	H2O(g)           -0.01     -0.00    0.00  H2O
	Halite           -4.61     -3.02    1.59  NaCl
	Labile_S        -11.10    -16.77   -5.67  Na4Ca(SO4)3:2H2O
	Mirabilite       -6.04     -5.71    0.33  Na2SO4:10H2O
	Portlandite      -9.28    -14.47   -5.19  Ca(OH)2
	Thenardite       -4.98     -5.70   -0.72  Na2SO4

**For a gas, SI = log10(fugacity). For ideal gases, fugacity = pressure / 1 atm.
For a Peng-Robinson gas, fugacity = pressure * phi / 1 atm

Reaction step 5.

Using solution 1.	
Using pure phase assemblage 1.	
Using reaction 1.	

Reaction 1.	

	 2.000e-002 moles of the following reaction have been added:

	                 Relative
	Reactant            moles

	NaCl                 1.00000

	                 Relative
	Element             moles
	Cl                   1.00000
	Na                   1.00000

-------------------------------Phase assemblage--------------------------------

                                                      Moles in assemblage
Phase               SI  log IAP  log K(T, P)   Initial       Final       Delta

Anhydrite         0.00    -5.36     -5.36   9.992e+000  9.991e+000 -8.544e-004
Halite           -4.28    -2.69      1.59   0.000e+000           0  0.000e+000

-----------------------------Solution composition------------------------------

	Elements           Molality       Moles

	Ca               8.633e-003  8.633e-003
	Cl               6.001e-002  6.001e-002
	Na               6.001e-002  6.001e-002
	S                8.633e-003  8.633e-003

----------------------------Description of solution----------------------------

                                       pH  =   6.340      Charge balance
                                       pe  =   4.000      Adjusted to redox equilibrium
       Specific Conductance (uS/cm, 100 oC) = 24243
                          Density (g/cm3)  =   0.96191
                               Volume (L)  =   1.04504
                        Activity of water  =   0.998
                           Ionic strength  =  9.454e-002
                       Mass of water (kg)  =  1.000e+000
                 Total alkalinity (eq/kg)  =  3.159e-017
                    Total carbon (mol/kg)  =  0.000e+000
                       Total CO2 (mol/kg)  =  0.000e+000
                      Temperature (deg C)  = 100.00
                  Electrical balance (eq)  = -5.227e-012
 Percent error, 100*(Cat-|An|)/(Cat+|An|)  =  -0.00
                               Iterations  =   8
                         Gamma iterations  =   3
                      Osmotic coefficient  =   0.88568
                         Density of water  =   0.95835
                                  Total H  = 1.110124e+002
                                  Total O  = 5.554075e+001

----------------------------Distribution of species----------------------------

                                                    MacInnes  MacInnes
                                MacInnes       Log       Log       Log    mole V
   Species          Molality    Activity  Molality  Activity     Gamma   cm3/mol

   OH-            1.775e-006  1.260e-006    -5.751    -5.899    -0.149     -5.24
   H+             6.084e-007  4.573e-007    -6.216    -6.340    -0.124      0.00
   H2O            5.551e+001  9.978e-001     1.744    -0.001     0.000     18.80
Ca           8.633e-003
   Ca+2           8.633e-003  2.153e-003    -2.064    -2.667    -0.603    -18.38
Cl           6.001e-002
   Cl-            6.001e-002  4.461e-002    -1.222    -1.351    -0.129     16.71
Na           6.001e-002
   Na+            6.001e-002  4.549e-002    -1.222    -1.342    -0.120      0.71
S(6)         8.633e-003
   SO4-2          8.632e-003  2.013e-003    -2.064    -2.696    -0.632     13.72
   HSO4-          1.166e-006  8.767e-007    -5.933    -6.057    -0.124     41.27

------------------------------Saturation indices-------------------------------

	Phase               SI** log IAP   log K(373 K,   1 atm)

	Anhydrite         0.00     -5.36   -5.36  CaSO4
	Glauberite       -4.08    -10.74   -6.66  Na2Ca(SO4)2
	Gypsum           -0.41     -5.37   -4.95  CaSO4:2H2O
	H2O(g)           -0.01     -0.00    0.00  H2O
	Halite           -4.28     -2.69    1.59  NaCl
	Labile_S        -10.45    -16.13   -5.67  Na4Ca(SO4)3:2H2O
	Mirabilite       -5.72     -5.39    0.33  Na2SO4:10H2O
	Portlandite      -9.28    -14.47   -5.19  Ca(OH)2
	Thenardite       -4.66     -5.38   -0.72  Na2SO4

**For a gas, SI = log10(fugacity). For ideal gases, fugacity = pressure / 1 atm.
For a Peng-Robinson gas, fugacity = pressure * phi / 1 atm

Reaction step 6.

Using solution 1.	
Using pure phase assemblage 1.	
Using reaction 1.	

Reaction 1.	

	 2.000e-002 moles of the following reaction have been added:

	                 Relative
	Reactant            moles

	NaCl                 1.00000

	                 Relative
	Element             moles
	Cl                   1.00000
	Na                   1.00000

-------------------------------Phase assemblage--------------------------------

                                                      Moles in assemblage
Phase               SI  log IAP  log K(T, P)   Initial       Final       Delta

Anhydrite         0.00    -5.36     -5.36   9.991e+000  9.991e+000 -7.479e-004
Halite           -4.05    -2.46      1.59   0.000e+000           0  0.000e+000

-----------------------------Solution composition------------------------------

	Elements           Molality       Moles

	Ca               9.381e-003  9.381e-003
	Cl               8.001e-002  8.001e-002
	Na               8.001e-002  8.001e-002
	S                9.381e-003  9.381e-003

----------------------------Description of solution----------------------------

                                       pH  =   6.337      Charge balance
                                       pe  =   4.000      Adjusted to redox equilibrium
       Specific Conductance (uS/cm, 100 oC) = 30794
                          Density (g/cm3)  =   0.96280
                               Volume (L)  =   1.04545
                        Activity of water  =   0.997
                           Ionic strength  =  1.175e-001
                       Mass of water (kg)  =  1.000e+000
                 Total alkalinity (eq/kg)  =  3.309e-017
                    Total carbon (mol/kg)  =  0.000e+000
                       Total CO2 (mol/kg)  =  0.000e+000
                      Temperature (deg C)  = 100.00
                  Electrical balance (eq)  = -5.465e-012
 Percent error, 100*(Cat-|An|)/(Cat+|An|)  =  -0.00
                               Iterations  =   8
                         Gamma iterations  =   3
                      Osmotic coefficient  =   0.88737
                         Density of water  =   0.95835
                                  Total H  = 1.110124e+002
                                  Total O  = 5.554374e+001

----------------------------Distribution of species----------------------------

                                                    MacInnes  MacInnes
                                MacInnes       Log       Log       Log    mole V
   Species          Molality    Activity  Molality  Activity     Gamma   cm3/mol

   OH-            1.809e-006  1.251e-006    -5.743    -5.903    -0.160     -5.14
   H+             6.232e-007  4.604e-007    -6.205    -6.337    -0.132      0.00
   H2O            5.551e+001  9.971e-001     1.744    -0.001     0.000     18.80
Ca           9.381e-003
   Ca+2           9.381e-003  2.186e-003    -2.028    -2.660    -0.633    -18.25
Cl           8.001e-002
   Cl-            8.001e-002  5.815e-002    -1.097    -1.235    -0.139     16.78
Na           8.001e-002
   Na+            8.001e-002  5.947e-002    -1.097    -1.226    -0.129      0.75
S(6)         9.381e-003
   SO4-2          9.380e-003  1.983e-003    -2.028    -2.703    -0.675     13.89
   HSO4-          1.185e-006  8.694e-007    -5.926    -6.061    -0.135     41.34

------------------------------Saturation indices-------------------------------

	Phase               SI** log IAP   log K(373 K,   1 atm)

	Anhydrite         0.00     -5.36   -5.36  CaSO4
	Glauberite       -3.85    -10.52   -6.66  Na2Ca(SO4)2
	Gypsum           -0.41     -5.37   -4.95  CaSO4:2H2O
	H2O(g)           -0.01     -0.00    0.00  H2O
	Halite           -4.05     -2.46    1.59  NaCl
	Labile_S        -10.00    -15.67   -5.67  Na4Ca(SO4)3:2H2O
	Mirabilite       -5.50     -5.17    0.33  Na2SO4:10H2O
	Portlandite      -9.28    -14.47   -5.19  Ca(OH)2
	Thenardite       -4.43     -5.15   -0.72  Na2SO4

**For a gas, SI = log10(fugacity). For ideal gases, fugacity = pressure / 1 atm.
For a Peng-Robinson gas, fugacity = pressure * phi / 1 atm

Reaction step 7.

Using solution 1.	
Using pure phase assemblage 1.	
Using reaction 1.	

Reaction 1.	

	 2.000e-002 moles of the following reaction have been added:

	                 Relative
	Reactant            moles

	NaCl                 1.00000

	                 Relative
	Element             moles
	Cl                   1.00000
	Na                   1.00000

-------------------------------Phase assemblage--------------------------------

                                                      Moles in assemblage
Phase               SI  log IAP  log K(T, P)   Initial       Final       Delta

Anhydrite         0.00    -5.36     -5.36   9.991e+000  9.990e+000 -6.736e-004
Halite           -3.87    -2.28      1.59   0.000e+000           0  0.000e+000

-----------------------------Solution composition------------------------------

	Elements           Molality       Moles

	Ca               1.005e-002  1.005e-002
	Cl               1.000e-001  1.000e-001
	Na               1.000e-001  1.000e-001
	S                1.005e-002  1.005e-002

----------------------------Description of solution----------------------------

                                       pH  =   6.334      Charge balance
                                       pe  =   4.000      Adjusted to redox equilibrium
       Specific Conductance (uS/cm, 100 oC) = 37227
                          Density (g/cm3)  =   0.96367
                               Volume (L)  =   1.04585
                        Activity of water  =   0.996
                           Ionic strength  =  1.402e-001
                       Mass of water (kg)  =  1.000e+000
                 Total alkalinity (eq/kg)  =  2.127e-017
                    Total carbon (mol/kg)  =  0.000e+000
                       Total CO2 (mol/kg)  =  0.000e+000
                      Temperature (deg C)  = 100.00
                  Electrical balance (eq)  = -5.646e-012
 Percent error, 100*(Cat-|An|)/(Cat+|An|)  =  -0.00
                               Iterations  =   8
                         Gamma iterations  =   3
                      Osmotic coefficient  =   0.88822
                         Density of water  =   0.95835
                                  Total H  = 1.110124e+002
                                  Total O  = 5.554644e+001

----------------------------Distribution of species----------------------------

                                                    MacInnes  MacInnes
                                MacInnes       Log       Log       Log    mole V
   Species          Molality    Activity  Molality  Activity     Gamma   cm3/mol

   OH-            1.836e-006  1.242e-006    -5.736    -5.906    -0.170     -5.05
   H+             6.359e-007  4.634e-007    -6.197    -6.334    -0.137      0.00
   H2O            5.551e+001  9.965e-001     1.744    -0.002     0.000     18.80
Ca           1.005e-002
   Ca+2           1.005e-002  2.219e-003    -1.998    -2.654    -0.656    -18.15
Cl           1.000e-001
   Cl-            1.000e-001  7.134e-002    -1.000    -1.147    -0.147     16.84
Na           1.000e-001
   Na+            1.000e-001  7.316e-002    -1.000    -1.136    -0.136      0.79
S(6)         1.005e-002
   SO4-2          1.005e-002  1.953e-003    -1.998    -2.709    -0.712     14.04
   HSO4-          1.200e-006  8.620e-007    -5.921    -6.065    -0.144     41.40

------------------------------Saturation indices-------------------------------

	Phase               SI** log IAP   log K(373 K,   1 atm)

	Anhydrite         0.00     -5.36   -5.36  CaSO4
	Glauberite       -3.68    -10.34   -6.66  Na2Ca(SO4)2
	Gypsum           -0.41     -5.37   -4.95  CaSO4:2H2O
	H2O(g)           -0.01     -0.00    0.00  H2O
	Halite           -3.87     -2.28    1.59  NaCl
	Labile_S         -9.66    -15.33   -5.67  Na4Ca(SO4)3:2H2O
	Mirabilite       -5.33     -5.00    0.33  Na2SO4:10H2O
	Portlandite      -9.28    -14.47   -5.19  Ca(OH)2
	Thenardite       -4.26     -4.98   -0.72  Na2SO4

**For a gas, SI = log10(fugacity). For ideal gases, fugacity = pressure / 1 atm.
For a Peng-Robinson gas, fugacity = pressure * phi / 1 atm

Reaction step 8.

Using solution 1.	
Using pure phase assemblage 1.	
Using reaction 1.	

Reaction 1.	

	 1.000e-001 moles of the following reaction have been added:

	                 Relative
	Reactant            moles

	NaCl                 1.00000

	                 Relative
	Element             moles
	Cl                   1.00000
	Na                   1.00000

-------------------------------Phase assemblage--------------------------------

                                                      Moles in assemblage
Phase               SI  log IAP  log K(T, P)   Initial       Final       Delta

Anhydrite         0.00    -5.36     -5.36   9.990e+000  9.987e+000 -2.713e-003
Halite           -3.32    -1.73      1.59   0.000e+000           0  0.000e+000

-----------------------------Solution composition------------------------------

	Elements           Molality       Moles

	Ca               1.277e-002  1.277e-002
	Cl               2.000e-001  2.000e-001
	Na               2.000e-001  2.000e-001
	S                1.277e-002  1.277e-002

----------------------------Description of solution----------------------------

                                       pH  =   6.320      Charge balance
                                       pe  =   4.000      Adjusted to redox equilibrium
       Specific Conductance (uS/cm, 100 oC) = 68301
                          Density (g/cm3)  =   0.96792
                               Volume (L)  =   1.04786
                        Activity of water  =   0.993
                           Ionic strength  =  2.511e-001
                       Mass of water (kg)  =  1.000e+000
                 Total alkalinity (eq/kg)  =  6.808e-017
                    Total carbon (mol/kg)  =  0.000e+000
                       Total CO2 (mol/kg)  =  0.000e+000
                      Temperature (deg C)  = 100.00
                  Electrical balance (eq)  = -1.162e-011
 Percent error, 100*(Cat-|An|)/(Cat+|An|)  =  -0.00
                               Iterations  =  10
                         Gamma iterations  =   4
                      Osmotic coefficient  =   0.89038
                         Density of water  =   0.95835
                                  Total H  = 1.110124e+002
                                  Total O  = 5.555729e+001

----------------------------Distribution of species----------------------------

                                                    MacInnes  MacInnes
                                MacInnes       Log       Log       Log    mole V
   Species          Molality    Activity  Molality  Activity     Gamma   cm3/mol

   OH-            1.917e-006  1.200e-006    -5.717    -5.921    -0.204     -4.68
   H+             6.806e-007  4.782e-007    -6.167    -6.320    -0.153      0.00
   H2O            5.551e+001  9.932e-001     1.744    -0.003     0.000     18.80
Ca           1.277e-002
   Ca+2           1.277e-002  2.392e-003    -1.894    -2.621    -0.727    -17.78
Cl           2.000e-001
   Cl-            2.000e-001  1.338e-001    -0.699    -0.874    -0.175     17.07
Na           2.000e-001
   Na+            2.000e-001  1.391e-001    -0.699    -0.857    -0.158      0.91
S(6)         1.277e-002
   SO4-2          1.277e-002  1.812e-003    -1.894    -2.742    -0.848     14.66
   HSO4-          1.236e-006  8.254e-007    -5.908    -6.083    -0.175     41.63

------------------------------Saturation indices-------------------------------

	Phase               SI** log IAP   log K(373 K,   1 atm)

	Anhydrite         0.00     -5.36   -5.36  CaSO4
	Glauberite       -3.15     -9.82   -6.66  Na2Ca(SO4)2
	Gypsum           -0.42     -5.37   -4.95  CaSO4:2H2O
	H2O(g)           -0.01     -0.00    0.00  H2O
	Halite           -3.32     -1.73    1.59  NaCl
	Labile_S         -8.61    -14.28   -5.67  Na4Ca(SO4)3:2H2O
	Mirabilite       -4.82     -4.48    0.33  Na2SO4:10H2O
	Portlandite      -9.27    -14.46   -5.19  Ca(OH)2
	Thenardite       -3.73     -4.46   -0.72  Na2SO4

**For a gas, SI = log10(fugacity). For ideal gases, fugacity = pressure / 1 atm.
For a Peng-Robinson gas, fugacity = pressure * phi / 1 atm

Reaction step 9.

Using solution 1.	
Using pure phase assemblage 1.	
Using reaction 1.	

Reaction 1.	

	 2.000e-001 moles of the following reaction have been added:

	                 Relative
	Reactant            moles

	NaCl                 1.00000

	                 Relative
	Element             moles
	Cl                   1.00000
	Na                   1.00000

-------------------------------Phase assemblage--------------------------------

                                                      Moles in assemblage
Phase               SI  log IAP  log K(T, P)   Initial       Final       Delta

Anhydrite         0.00    -5.36     -5.36   9.987e+000  9.983e+000 -3.849e-003
Halite           -2.76    -1.18      1.59   0.000e+000           0  0.000e+000

-----------------------------Solution composition------------------------------

	Elements           Molality       Moles

	Ca               1.662e-002  1.662e-002
	Cl               4.000e-001  4.000e-001
	Na               4.000e-001  4.000e-001
	S                1.662e-002  1.662e-002

----------------------------Description of solution----------------------------

                                       pH  =   6.297      Charge balance
                                       pe  =   4.000      Adjusted to redox equilibrium
       Specific Conductance (uS/cm, 100 oC) = 123483
                          Density (g/cm3)  =   0.97604
                               Volume (L)  =   1.05190
                        Activity of water  =   0.987
                           Ionic strength  =  4.665e-001
                       Mass of water (kg)  =  1.000e+000
                 Total alkalinity (eq/kg)  =  1.755e-016
                    Total carbon (mol/kg)  =  0.000e+000
                       Total CO2 (mol/kg)  =  0.000e+000
                      Temperature (deg C)  = 100.00
                  Electrical balance (eq)  = -1.773e-011
 Percent error, 100*(Cat-|An|)/(Cat+|An|)  =  -0.00
                               Iterations  =  10
                         Gamma iterations  =   4
                      Osmotic coefficient  =   0.89650
                         Density of water  =   0.95835
                                  Total H  = 1.110124e+002
                                  Total O  = 5.557269e+001

----------------------------Distribution of species----------------------------

                                                    MacInnes  MacInnes
                                MacInnes       Log       Log       Log    mole V
   Species          Molality    Activity  Molality  Activity     Gamma   cm3/mol

   OH-            1.972e-006  1.128e-006    -5.705    -5.948    -0.242     -4.08
   H+             7.261e-007  5.051e-007    -6.139    -6.297    -0.158      0.00
   H2O            5.551e+001  9.866e-001     1.744    -0.006     0.000     18.80
Ca           1.662e-002
   Ca+2           1.662e-002  2.738e-003    -1.779    -2.563    -0.783    -17.35
Cl           4.000e-001
   Cl-            4.000e-001  2.496e-001    -0.398    -0.603    -0.205     17.39
Na           4.000e-001
   Na+            4.000e-001  2.668e-001    -0.398    -0.574    -0.176      1.05
S(6)         1.662e-002
   SO4-2          1.662e-002  1.583e-003    -1.779    -2.801    -1.021     15.57
   HSO4-          1.246e-006  7.616e-007    -5.905    -6.118    -0.214     41.95

------------------------------Saturation indices-------------------------------

	Phase               SI** log IAP   log K(373 K,   1 atm)

	Anhydrite         0.00     -5.36   -5.36  CaSO4
	Glauberite       -2.65     -9.31   -6.66  Na2Ca(SO4)2
	Gypsum           -0.42     -5.37   -4.95  CaSO4:2H2O
	H2O(g)           -0.01     -0.01    0.00  H2O
	Halite           -2.76     -1.18    1.59  NaCl
	Labile_S         -7.60    -13.27   -5.67  Na4Ca(SO4)3:2H2O
	Mirabilite       -4.34     -4.01    0.33  Na2SO4:10H2O
	Portlandite      -9.27    -14.46   -5.19  Ca(OH)2
	Thenardite       -3.23     -3.95   -0.72  Na2SO4

**For a gas, SI = log10(fugacity). For ideal gases, fugacity = pressure / 1 atm.
For a Peng-Robinson gas, fugacity = pressure * phi / 1 atm

Reaction step 10.

Using solution 1.	
Using pure phase assemblage 1.	
Using reaction 1.	

Reaction 1.	

	 2.000e-001 moles of the following reaction have been added:

	                 Relative
	Reactant            moles

	NaCl                 1.00000

	                 Relative
	Element             moles
	Cl                   1.00000
	Na                   1.00000

-------------------------------Phase assemblage--------------------------------

                                                      Moles in assemblage
Phase               SI  log IAP  log K(T, P)   Initial       Final       Delta

Anhydrite         0.00    -5.36     -5.36   9.983e+000  9.981e+000 -2.838e-003
Halite           -2.43    -0.85      1.59   0.000e+000           0  0.000e+000

-----------------------------Solution composition------------------------------

	Elements           Molality       Moles

	Ca               1.946e-002  1.946e-002
	Cl               6.000e-001  6.000e-001
	Na               6.000e-001  6.000e-001
	S                1.946e-002  1.946e-002

----------------------------Description of solution----------------------------

                                       pH  =   6.276      Charge balance
                                       pe  =   4.000      Adjusted to redox equilibrium
       Specific Conductance (uS/cm, 100 oC) = 168240
                          Density (g/cm3)  =   0.98388
                               Volume (L)  =   1.05598
                        Activity of water  =   0.980
                           Ionic strength  =  6.778e-001
                       Mass of water (kg)  =  1.000e+000
                 Total alkalinity (eq/kg)  =  5.776e-017
                    Total carbon (mol/kg)  =  0.000e+000
                       Total CO2 (mol/kg)  =  0.000e+000
                      Temperature (deg C)  = 100.00
                  Electrical balance (eq)  = -1.855e-011
 Percent error, 100*(Cat-|An|)/(Cat+|An|)  =  -0.00
                               Iterations  =   8
                         Gamma iterations  =   3
                      Osmotic coefficient  =   0.90485
                         Density of water  =   0.95835
                                  Total H  = 1.110124e+002
                                  Total O  = 5.558404e+001

----------------------------Distribution of species----------------------------

                                                    MacInnes  MacInnes
                                MacInnes       Log       Log       Log    mole V
   Species          Molality    Activity  Molality  Activity     Gamma   cm3/mol

   OH-            1.975e-006  1.069e-006    -5.704    -5.971    -0.267     -3.56
   H+             7.457e-007  5.297e-007    -6.127    -6.276    -0.149      0.00
   H2O            5.551e+001  9.800e-001     1.744    -0.009     0.000     18.80
Ca           1.946e-002
   Ca+2           1.946e-002  3.088e-003    -1.711    -2.510    -0.799    -17.06
Cl           6.000e-001
   Cl-            6.000e-001  3.597e-001    -0.222    -0.444    -0.222     17.64
Na           6.000e-001
   Na+            6.000e-001  3.949e-001    -0.222    -0.404    -0.182      1.15
S(6)         1.946e-002
   SO4-2          1.945e-002  1.403e-003    -1.711    -2.853    -1.142     16.28
   HSO4-          1.230e-006  7.080e-007    -5.910    -6.150    -0.240     42.19

------------------------------Saturation indices-------------------------------

	Phase               SI** log IAP   log K(373 K,   1 atm)

	Anhydrite         0.00     -5.36   -5.36  CaSO4
	Glauberite       -2.36     -9.02   -6.66  Na2Ca(SO4)2
	Gypsum           -0.43     -5.38   -4.95  CaSO4:2H2O
	H2O(g)           -0.01     -0.01    0.00  H2O
	Halite           -2.43     -0.85    1.59  NaCl
	Labile_S         -7.03    -12.70   -5.67  Na4Ca(SO4)3:2H2O
	Mirabilite       -4.08     -3.75    0.33  Na2SO4:10H2O
	Portlandite      -9.26    -14.45   -5.19  Ca(OH)2
	Thenardite       -2.94     -3.66   -0.72  Na2SO4

**For a gas, SI = log10(fugacity). For ideal gases, fugacity = pressure / 1 atm.
For a Peng-Robinson gas, fugacity = pressure * phi / 1 atm

Reaction step 11.

Using solution 1.	
Using pure phase assemblage 1.	
Using reaction 1.	

Reaction 1.	

	 2.000e-001 moles of the following reaction have been added:

	                 Relative
	Reactant            moles

	NaCl                 1.00000

	                 Relative
	Element             moles
	Cl                   1.00000
	Na                   1.00000

-------------------------------Phase assemblage--------------------------------

                                                      Moles in assemblage
Phase               SI  log IAP  log K(T, P)   Initial       Final       Delta

Anhydrite         0.00    -5.36     -5.36   9.981e+000  9.978e+000 -2.249e-003
Halite           -2.20    -0.61      1.59   0.000e+000           0  0.000e+000

-----------------------------Solution composition------------------------------

	Elements           Molality       Moles

	Ca               2.171e-002  2.171e-002
	Cl               8.000e-001  8.000e-001
	Na               8.000e-001  8.000e-001
	S                2.171e-002  2.171e-002

----------------------------Description of solution----------------------------

                                       pH  =   6.257      Charge balance
                                       pe  =   4.000      Adjusted to redox equilibrium
       Specific Conductance (uS/cm, 100 oC) = 207183
                          Density (g/cm3)  =   0.99150
                               Volume (L)  =   1.06011
                        Activity of water  =   0.973
                           Ionic strength  =  8.868e-001
                       Mass of water (kg)  =  1.000e+000
                 Total alkalinity (eq/kg)  =  1.484e-016
                    Total carbon (mol/kg)  =  0.000e+000
                       Total CO2 (mol/kg)  =  0.000e+000
                      Temperature (deg C)  = 100.00
                  Electrical balance (eq)  = -1.881e-011
 Percent error, 100*(Cat-|An|)/(Cat+|An|)  =  -0.00
                               Iterations  =   8
                         Gamma iterations  =   3
                      Osmotic coefficient  =   0.91436
                         Density of water  =   0.95835
                                  Total H  = 1.110124e+002
                                  Total O  = 5.559304e+001

----------------------------Distribution of species----------------------------

                                                    MacInnes  MacInnes
                                MacInnes       Log       Log       Log    mole V
   Species          Molality    Activity  Molality  Activity     Gamma   cm3/mol

   OH-            1.957e-006  1.017e-006    -5.708    -5.993    -0.284     -3.10
   H+             7.517e-007  5.531e-007    -6.124    -6.257    -0.133      0.00
   H2O            5.551e+001  9.733e-001     1.744    -0.012     0.000     18.80
Ca           2.171e-002
   Ca+2           2.171e-002  3.450e-003    -1.663    -2.462    -0.799    -16.85
Cl           8.000e-001
   Cl-            8.000e-001  4.673e-001    -0.097    -0.330    -0.234     17.83
Na           8.000e-001
   Na+            8.000e-001  5.263e-001    -0.097    -0.279    -0.182      1.22
S(6)         2.171e-002
   SO4-2          2.170e-002  1.256e-003    -1.663    -2.901    -1.238     16.89
   HSO4-          1.205e-006  6.618e-007    -5.919    -6.179    -0.260     42.39

------------------------------Saturation indices-------------------------------

	Phase               SI** log IAP   log K(373 K,   1 atm)

	Anhydrite         0.00     -5.36   -5.36  CaSO4
	Glauberite       -2.16     -8.82   -6.66  Na2Ca(SO4)2
	Gypsum           -0.43     -5.39   -4.95  CaSO4:2H2O
	H2O(g)           -0.02     -0.01    0.00  H2O
	Halite           -2.20     -0.61    1.59  NaCl
	Labile_S         -6.63    -12.30   -5.67  Na4Ca(SO4)3:2H2O
	Mirabilite       -3.91     -3.58    0.33  Na2SO4:10H2O
	Portlandite      -9.26    -14.45   -5.19  Ca(OH)2
	Thenardite       -2.74     -3.46   -0.72  Na2SO4

**For a gas, SI = log10(fugacity). For ideal gases, fugacity = pressure / 1 atm.
For a Peng-Robinson gas, fugacity = pressure * phi / 1 atm

Reaction step 12.

Using solution 1.	
Using pure phase assemblage 1.	
Using reaction 1.	

Reaction 1.	

	 2.000e-001 moles of the following reaction have been added:

	                 Relative
	Reactant            moles

	NaCl                 1.00000

	                 Relative
	Element             moles
	Cl                   1.00000
	Na                   1.00000

-------------------------------Phase assemblage--------------------------------

                                                      Moles in assemblage
Phase               SI  log IAP  log K(T, P)   Initial       Final       Delta

Anhydrite         0.00    -5.36     -5.36   9.978e+000  9.976e+000 -1.833e-003
Halite           -2.01    -0.42      1.59   0.000e+000           0  0.000e+000

-----------------------------Solution composition------------------------------

	Elements           Molality       Moles

	Ca               2.354e-002  2.354e-002
	Cl               1.000e+000  1.000e+000
	Na               1.000e+000  1.000e+000
	S                2.354e-002  2.354e-002

----------------------------Description of solution----------------------------

                                       pH  =   6.240      Charge balance
                                       pe  =   4.000      Adjusted to redox equilibrium
       Specific Conductance (uS/cm, 100 oC) = 242671
                          Density (g/cm3)  =   0.99895
                               Volume (L)  =   1.06427
                        Activity of water  =   0.966
                           Ionic strength  =  1.094e+000
                       Mass of water (kg)  =  1.000e+000
                 Total alkalinity (eq/kg)  =  2.293e-016
                    Total carbon (mol/kg)  =  0.000e+000
                       Total CO2 (mol/kg)  =  0.000e+000
                      Temperature (deg C)  = 100.00
                  Electrical balance (eq)  = -1.885e-011
 Percent error, 100*(Cat-|An|)/(Cat+|An|)  =  -0.00
                               Iterations  =   8
                         Gamma iterations  =   3
                      Osmotic coefficient  =   0.92461
                         Density of water  =   0.95835
                                  Total H  = 1.110124e+002
                                  Total O  = 5.560037e+001

----------------------------Distribution of species----------------------------

                                                    MacInnes  MacInnes
                                MacInnes       Log       Log       Log    mole V
   Species          Molality    Activity  Molality  Activity     Gamma   cm3/mol

   OH-            1.927e-006  9.693e-007    -5.715    -6.014    -0.298     -2.66
   H+             7.493e-007  5.760e-007    -6.125    -6.240    -0.114      0.00
   H2O            5.551e+001  9.665e-001     1.744    -0.015     0.000     18.80
Ca           2.354e-002
   Ca+2           2.354e-002  3.828e-003    -1.628    -2.417    -0.789    -16.66
Cl           1.000e+000
   Cl-            1.000e+000  5.736e-001     0.000    -0.241    -0.241     18.00
Na           1.000e+000
   Na+            1.000e+000  6.624e-001     0.000    -0.179    -0.179      1.28
S(6)         2.354e-002
   SO4-2          2.354e-002  1.132e-003    -1.628    -2.946    -1.318     17.42
   HSO4-          1.178e-006  6.210e-007    -5.929    -6.207    -0.278     42.56

------------------------------Saturation indices-------------------------------

	Phase               SI** log IAP   log K(373 K,   1 atm)

	Anhydrite         0.00     -5.36   -5.36  CaSO4
	Glauberite       -2.00     -8.67   -6.66  Na2Ca(SO4)2
	Gypsum           -0.44     -5.39   -4.95  CaSO4:2H2O
	H2O(g)           -0.02     -0.01    0.00  H2O
	Halite           -2.01     -0.42    1.59  NaCl
	Labile_S         -6.33    -12.00   -5.67  Na4Ca(SO4)3:2H2O
	Mirabilite       -3.79     -3.45    0.33  Na2SO4:10H2O
	Portlandite      -9.25    -14.44   -5.19  Ca(OH)2
	Thenardite       -2.58     -3.30   -0.72  Na2SO4

**For a gas, SI = log10(fugacity). For ideal gases, fugacity = pressure / 1 atm.
For a Peng-Robinson gas, fugacity = pressure * phi / 1 atm

Reaction step 13.

Using solution 1.	
Using pure phase assemblage 1.	
Using reaction 1.	

Reaction 1.	

	 5.000e-001 moles of the following reaction have been added:

	                 Relative
	Reactant            moles

	NaCl                 1.00000

	                 Relative
	Element             moles
	Cl                   1.00000
	Na                   1.00000

-------------------------------Phase assemblage--------------------------------

                                                      Moles in assemblage
Phase               SI  log IAP  log K(T, P)   Initial       Final       Delta

Anhydrite         0.00    -5.36     -5.36   9.976e+000  9.973e+000 -3.285e-003
Halite           -1.65    -0.06      1.59   0.000e+000           0  0.000e+000

-----------------------------Solution composition------------------------------

	Elements           Molality       Moles

	Ca               2.682e-002  2.682e-002
	Cl               1.500e+000  1.500e+000
	Na               1.500e+000  1.500e+000
	S                2.682e-002  2.682e-002

----------------------------Description of solution----------------------------

                                       pH  =   6.199      Charge balance
                                       pe  =   4.000      Adjusted to redox equilibrium
       Specific Conductance (uS/cm, 100 oC) = 324281
                          Density (g/cm3)  =   1.01694
                               Volume (L)  =   1.07483
                        Activity of water  =   0.949
                           Ionic strength  =  1.607e+000
                       Mass of water (kg)  =  1.000e+000
                 Total alkalinity (eq/kg)  =  6.989e-017
                    Total carbon (mol/kg)  =  0.000e+000
                       Total CO2 (mol/kg)  =  0.000e+000
                      Temperature (deg C)  = 100.00
                  Electrical balance (eq)  = -1.823e-011
 Percent error, 100*(Cat-|An|)/(Cat+|An|)  =  -0.00
                               Iterations  =   8
                         Gamma iterations  =   3
                      Osmotic coefficient  =   0.95220
                         Density of water  =   0.95835
                                  Total H  = 1.110124e+002
                                  Total O  = 5.561351e+001

----------------------------Distribution of species----------------------------

                                                    MacInnes  MacInnes
                                MacInnes       Log       Log       Log    mole V
   Species          Molality    Activity  Molality  Activity     Gamma   cm3/mol

   OH-            1.829e-006  8.659e-007    -5.738    -6.063    -0.325     -1.66
   H+             7.221e-007  6.331e-007    -6.141    -6.199    -0.057      0.00
   H2O            5.551e+001  9.490e-001     1.744    -0.023     0.000     18.80
Ca           2.682e-002
   Ca+2           2.682e-002  4.872e-003    -1.571    -2.312    -0.741    -16.30
Cl           1.500e+000
   Cl-            1.500e+000  8.386e-001     0.176    -0.076    -0.253     18.35
Na           1.500e+000
   Na+            1.500e+000  1.030e+000     0.176     0.013    -0.163      1.39
S(6)         2.682e-002
   SO4-2          2.682e-002  8.894e-004    -1.572    -3.051    -1.479     18.58
   HSO4-          1.107e-006  5.364e-007    -5.956    -6.271    -0.315     42.91

------------------------------Saturation indices-------------------------------

	Phase               SI** log IAP   log K(373 K,   1 atm)

	Anhydrite         0.00     -5.36   -5.36  CaSO4
	Glauberite       -1.72     -8.39   -6.66  Na2Ca(SO4)2
	Gypsum           -0.46     -5.41   -4.95  CaSO4:2H2O
	H2O(g)           -0.03     -0.02    0.00  H2O
	Halite           -1.65     -0.06    1.59  NaCl
	Labile_S         -5.79    -11.46   -5.67  Na4Ca(SO4)3:2H2O
	Mirabilite       -3.59     -3.25    0.33  Na2SO4:10H2O
	Portlandite      -9.25    -14.44   -5.19  Ca(OH)2
	Thenardite       -2.30     -3.03   -0.72  Na2SO4

**For a gas, SI = log10(fugacity). For ideal gases, fugacity = pressure / 1 atm.
For a Peng-Robinson gas, fugacity = pressure * phi / 1 atm

Reaction step 14.

Using solution 1.	
Using pure phase assemblage 1.	
Using reaction 1.	

Reaction 1.	

	 5.000e-001 moles of the following reaction have been added:

	                 Relative
	Reactant            moles

	NaCl                 1.00000

	                 Relative
	Element             moles
	Cl                   1.00000
	Na                   1.00000

-------------------------------Phase assemblage--------------------------------

                                                      Moles in assemblage
Phase               SI  log IAP  log K(T, P)   Initial       Final       Delta

Anhydrite         0.00    -5.36     -5.36   9.973e+000  9.971e+000 -1.952e-003
Halite           -1.38     0.20      1.59   0.000e+000           0  0.000e+000

-----------------------------Solution composition------------------------------

	Elements           Molality       Moles

	Ca               2.877e-002  2.877e-002
	Cl               2.000e+000  2.000e+000
	Na               2.000e+000  2.000e+000
	S                2.877e-002  2.877e-002

----------------------------Description of solution----------------------------

                                       pH  =   6.160      Charge balance
                                       pe  =   4.000      Adjusted to redox equilibrium
       Specific Conductance (uS/cm, 100 oC) = 404650
                          Density (g/cm3)  =   1.03416
                               Volume (L)  =   1.08556
                        Activity of water  =   0.931
                           Ionic strength  =  2.115e+000
                       Mass of water (kg)  =  1.000e+000
                 Total alkalinity (eq/kg)  =  5.256e-016
                    Total carbon (mol/kg)  =  0.000e+000
                       Total CO2 (mol/kg)  =  0.000e+000
                      Temperature (deg C)  = 100.00
                  Electrical balance (eq)  = -1.784e-011
 Percent error, 100*(Cat-|An|)/(Cat+|An|)  =  -0.00
                               Iterations  =   8
                         Gamma iterations  =   3
                      Osmotic coefficient  =   0.98138
                         Density of water  =   0.95835
                                  Total H  = 1.110124e+002
                                  Total O  = 5.562132e+001

----------------------------Distribution of species----------------------------

                                                    MacInnes  MacInnes
                                MacInnes       Log       Log       Log    mole V
   Species          Molality    Activity  Molality  Activity     Gamma   cm3/mol

   OH-            1.719e-006  7.766e-007    -5.765    -6.110    -0.345     -0.73
   H+             6.794e-007  6.923e-007    -6.168    -6.160     0.008      0.00
   H2O            5.551e+001  9.308e-001     1.744    -0.031     0.000     18.80
Ca           2.877e-002
   Ca+2           2.877e-002  6.091e-003    -1.541    -2.215    -0.674    -16.00
Cl           2.000e+000
   Cl-            2.000e+000  1.108e+000     0.301     0.044    -0.257     18.63
Na           2.000e+000
   Na+            2.000e+000  1.446e+000     0.301     0.160    -0.141      1.48
S(6)         2.877e-002
   SO4-2          2.877e-002  7.114e-004    -1.541    -3.148    -1.607     19.55
   HSO4-          1.039e-006  4.692e-007    -5.983    -6.329    -0.345     43.18

------------------------------Saturation indices-------------------------------

	Phase               SI** log IAP   log K(373 K,   1 atm)

	Anhydrite         0.00     -5.36   -5.36  CaSO4
	Glauberite       -1.53     -8.19   -6.66  Na2Ca(SO4)2
	Gypsum           -0.47     -5.43   -4.95  CaSO4:2H2O
	H2O(g)           -0.04     -0.03    0.00  H2O
	Halite           -1.38      0.20    1.59  NaCl
	Labile_S         -5.41    -11.08   -5.67  Na4Ca(SO4)3:2H2O
	Mirabilite       -3.47     -3.14    0.33  Na2SO4:10H2O
	Portlandite      -9.24    -14.43   -5.19  Ca(OH)2
	Thenardite       -2.11     -2.83   -0.72  Na2SO4

**For a gas, SI = log10(fugacity). For ideal gases, fugacity = pressure / 1 atm.
For a Peng-Robinson gas, fugacity = pressure * phi / 1 atm

Reaction step 15.

Using solution 1.	
Using pure phase assemblage 1.	
Using reaction 1.	

Reaction 1.	

	 5.000e-001 moles of the following reaction have been added:

	                 Relative
	Reactant            moles

	NaCl                 1.00000

	                 Relative
	Element             moles
	Cl                   1.00000
	Na                   1.00000

-------------------------------Phase assemblage--------------------------------

                                                      Moles in assemblage
Phase               SI  log IAP  log K(T, P)   Initial       Final       Delta

Anhydrite         0.00    -5.36     -5.36   9.971e+000  9.970e+000 -1.011e-003
Halite           -1.16     0.42      1.59   0.000e+000           0  0.000e+000

-----------------------------Solution composition------------------------------

	Elements           Molality       Moles

	Ca               2.978e-002  2.978e-002
	Cl               2.500e+000  2.500e+000
	Na               2.500e+000  2.500e+000
	S                2.978e-002  2.978e-002

----------------------------Description of solution----------------------------

                                       pH  =   6.122      Charge balance
                                       pe  =   4.000      Adjusted to redox equilibrium
       Specific Conductance (uS/cm, 100 oC) = 491863
                          Density (g/cm3)  =   1.05074
                               Volume (L)  =   1.09644
                        Activity of water  =   0.912
                           Ionic strength  =  2.619e+000
                       Mass of water (kg)  =  1.000e+000
                 Total alkalinity (eq/kg)  =  4.449e-014
                    Total carbon (mol/kg)  =  0.000e+000
                       Total CO2 (mol/kg)  =  0.000e+000
                      Temperature (deg C)  = 100.00
                  Electrical balance (eq)  =  1.096e-009
 Percent error, 100*(Cat-|An|)/(Cat+|An|)  =   0.00
                               Iterations  =   7
                         Gamma iterations  =   3
                      Osmotic coefficient  =   1.01129
                         Density of water  =   0.95835
                                  Total H  = 1.110124e+002
                                  Total O  = 5.562536e+001

----------------------------Distribution of species----------------------------

                                                    MacInnes  MacInnes
                                MacInnes       Log       Log       Log    mole V
   Species          Molality    Activity  Molality  Activity     Gamma   cm3/mol

   OH-            1.609e-006  6.974e-007    -5.793    -6.157    -0.363      0.15
   H+             6.305e-007  7.554e-007    -6.200    -6.122     0.078      0.00
   H2O            5.551e+001  9.119e-001     1.744    -0.040     0.000     18.80
Ca           2.978e-002
   Ca+2           2.978e-002  7.527e-003    -1.526    -2.123    -0.597    -15.74
Cl           2.500e+000
   Cl-            2.500e+000  1.384e+000     0.398     0.141    -0.257     18.86
Na           2.500e+000
   Na+            2.500e+000  1.919e+000     0.398     0.283    -0.115      1.55
S(6)         2.978e-002
   SO4-2          2.978e-002  5.757e-004    -1.526    -3.240    -1.714     20.42
   HSO4-          9.786e-007  4.142e-007    -6.009    -6.383    -0.373     43.41

------------------------------Saturation indices-------------------------------

	Phase               SI** log IAP   log K(373 K,   1 atm)

	Anhydrite         0.00     -5.36   -5.36  CaSO4
	Glauberite       -1.37     -8.04   -6.66  Na2Ca(SO4)2
	Gypsum           -0.49     -5.44   -4.95  CaSO4:2H2O
	H2O(g)           -0.05     -0.04    0.00  H2O
	Halite           -1.16      0.42    1.59  NaCl
	Labile_S         -5.12    -10.79   -5.67  Na4Ca(SO4)3:2H2O
	Mirabilite       -3.41     -3.07    0.33  Na2SO4:10H2O
	Portlandite      -9.25    -14.44   -5.19  Ca(OH)2
	Thenardite       -1.95     -2.67   -0.72  Na2SO4

**For a gas, SI = log10(fugacity). For ideal gases, fugacity = pressure / 1 atm.
For a Peng-Robinson gas, fugacity = pressure * phi / 1 atm

Reaction step 16.

Using solution 1.	
Using pure phase assemblage 1.	
Using reaction 1.	

Reaction 1.	

	 5.000e-001 moles of the following reaction have been added:

	                 Relative
	Reactant            moles

	NaCl                 1.00000

	                 Relative
	Element             moles
	Cl                   1.00000
	Na                   1.00000

-------------------------------Phase assemblage--------------------------------

                                                      Moles in assemblage
Phase               SI  log IAP  log K(T, P)   Initial       Final       Delta

Anhydrite         0.00    -5.36     -5.36   9.970e+000  9.970e+000 -3.326e-004
Halite           -0.97     0.61      1.59   0.000e+000           0  0.000e+000

-----------------------------Solution composition------------------------------

	Elements           Molality       Moles

	Ca               3.012e-002  3.012e-002
	Cl               3.000e+000  3.000e+000
	Na               3.000e+000  3.000e+000
	S                3.012e-002  3.012e-002

----------------------------Description of solution----------------------------

                                       pH  =   6.084      Charge balance
                                       pe  =   4.000      Adjusted to redox equilibrium
       Specific Conductance (uS/cm, 100 oC) = 592921
                          Density (g/cm3)  =   1.06674
                               Volume (L)  =   1.10745
                        Activity of water  =   0.893
                           Ionic strength  =  3.120e+000
                       Mass of water (kg)  =  1.000e+000
                 Total alkalinity (eq/kg)  =  8.454e-014
                    Total carbon (mol/kg)  =  0.000e+000
                       Total CO2 (mol/kg)  =  0.000e+000
                      Temperature (deg C)  = 100.00
                  Electrical balance (eq)  =  9.195e-010
 Percent error, 100*(Cat-|An|)/(Cat+|An|)  =   0.00
                               Iterations  =   7
                         Gamma iterations  =   3
                      Osmotic coefficient  =   1.04136
                         Density of water  =   0.95835
                                  Total H  = 1.110124e+002
                                  Total O  = 5.562669e+001

----------------------------Distribution of species----------------------------

                                                    MacInnes  MacInnes
                                MacInnes       Log       Log       Log    mole V
   Species          Molality    Activity  Molality  Activity     Gamma   cm3/mol

   OH-            1.505e-006  6.261e-007    -5.822    -6.203    -0.381      1.00
   H+             5.800e-007  8.235e-007    -6.237    -6.084     0.152      0.00
   H2O            5.551e+001  8.925e-001     1.744    -0.049     0.000     18.80
Ca           3.012e-002
   Ca+2           3.012e-002  9.224e-003    -1.521    -2.035    -0.514    -15.50
Cl           3.000e+000
   Cl-            3.000e+000  1.670e+000     0.477     0.223    -0.254     19.07
Na           3.000e+000
   Na+            3.000e+000  2.458e+000     0.477     0.391    -0.087      1.60
S(6)         3.012e-002
   SO4-2          3.012e-002  4.698e-004    -1.521    -3.328    -1.807     21.20
   HSO4-          9.250e-007  3.685e-007    -6.034    -6.434    -0.400     43.61

------------------------------Saturation indices-------------------------------

	Phase               SI** log IAP   log K(373 K,   1 atm)

	Anhydrite         0.00     -5.36   -5.36  CaSO4
	Glauberite       -1.25     -7.91   -6.66  Na2Ca(SO4)2
	Gypsum           -0.51     -5.46   -4.95  CaSO4:2H2O
	H2O(g)           -0.05     -0.05    0.00  H2O
	Halite           -0.97      0.61    1.59  NaCl
	Labile_S         -4.88    -10.56   -5.67  Na4Ca(SO4)3:2H2O
	Mirabilite       -3.37     -3.04    0.33  Na2SO4:10H2O
	Portlandite      -9.25    -14.44   -5.19  Ca(OH)2
	Thenardite       -1.83     -2.55   -0.72  Na2SO4

**For a gas, SI = log10(fugacity). For ideal gases, fugacity = pressure / 1 atm.
For a Peng-Robinson gas, fugacity = pressure * phi / 1 atm

Reaction step 17.

Using solution 1.	
Using pure phase assemblage 1.	
Using reaction 1.	

Reaction 1.	

	 5.000e-001 moles of the following reaction have been added:

	                 Relative
	Reactant            moles

	NaCl                 1.00000

	                 Relative
	Element             moles
	Cl                   1.00000
	Na                   1.00000

-------------------------------Phase assemblage--------------------------------

                                                      Moles in assemblage
Phase               SI  log IAP  log K(T, P)   Initial       Final       Delta

Anhydrite         0.00    -5.36     -5.36   9.970e+000  9.970e+000  1.489e-004
Halite           -0.81     0.78      1.59   0.000e+000           0  0.000e+000

-----------------------------Solution composition------------------------------

	Elements           Molality       Moles

	Ca               2.997e-002  2.997e-002
	Cl               3.500e+000  3.500e+000
	Na               3.500e+000  3.500e+000
	S                2.997e-002  2.997e-002

----------------------------Description of solution----------------------------

                                       pH  =   6.047      Charge balance
                                       pe  =   4.000      Adjusted to redox equilibrium
       Specific Conductance (uS/cm, 100 oC) = 715253
                          Density (g/cm3)  =   1.08222
                               Volume (L)  =   1.11858
                        Activity of water  =   0.873
                           Ionic strength  =  3.620e+000
                       Mass of water (kg)  =  1.000e+000
                 Total alkalinity (eq/kg)  =  1.253e-013
                    Total carbon (mol/kg)  =  0.000e+000
                       Total CO2 (mol/kg)  =  0.000e+000
                      Temperature (deg C)  = 100.00
                  Electrical balance (eq)  =  3.476e-010
 Percent error, 100*(Cat-|An|)/(Cat+|An|)  =   0.00
                               Iterations  =   7
                         Gamma iterations  =   3
                      Osmotic coefficient  =   1.07122
                         Density of water  =   0.95835
                                  Total H  = 1.110124e+002
                                  Total O  = 5.562609e+001

----------------------------Distribution of species----------------------------

                                                    MacInnes  MacInnes
                                MacInnes       Log       Log       Log    mole V
   Species          Molality    Activity  Molality  Activity     Gamma   cm3/mol

   OH-            1.409e-006  5.616e-007    -5.851    -6.251    -0.399      1.82
   H+             5.304e-007  8.976e-007    -6.275    -6.047     0.229      0.00
   H2O            5.551e+001  8.726e-001     1.744    -0.059     0.000     18.80
Ca           2.997e-002
   Ca+2           2.997e-002  1.123e-002    -1.523    -1.950    -0.426    -15.28
Cl           3.500e+000
   Cl-            3.500e+000  1.966e+000     0.544     0.294    -0.251     19.24
Na           3.500e+000
   Na+            3.500e+000  3.071e+000     0.544     0.487    -0.057      1.66
S(6)         2.997e-002
   SO4-2          2.997e-002  3.859e-004    -1.523    -3.414    -1.890     21.93
   HSO4-          8.784e-007  3.300e-007    -6.056    -6.482    -0.425     43.79

------------------------------Saturation indices-------------------------------

	Phase               SI** log IAP   log K(373 K,   1 atm)

	Anhydrite         0.00     -5.36   -5.36  CaSO4
	Glauberite       -1.14     -7.80   -6.66  Na2Ca(SO4)2
	Gypsum           -0.53     -5.48   -4.95  CaSO4:2H2O
	H2O(g)           -0.06     -0.06    0.00  H2O
	Halite           -0.81      0.78    1.59  NaCl
	Labile_S         -4.69    -10.36   -5.67  Na4Ca(SO4)3:2H2O
	Mirabilite       -3.36     -3.03    0.33  Na2SO4:10H2O
	Portlandite      -9.26    -14.45   -5.19  Ca(OH)2
	Thenardite       -1.72     -2.44   -0.72  Na2SO4

**For a gas, SI = log10(fugacity). For ideal gases, fugacity = pressure / 1 atm.
For a Peng-Robinson gas, fugacity = pressure * phi / 1 atm

Reaction step 18.

Using solution 1.	
Using pure phase assemblage 1.	
Using reaction 1.	

Reaction 1.	

	 5.000e-001 moles of the following reaction have been added:

	                 Relative
	Reactant            moles

	NaCl                 1.00000

	                 Relative
	Element             moles
	Cl                   1.00000
	Na                   1.00000

-------------------------------Phase assemblage--------------------------------

                                                      Moles in assemblage
Phase               SI  log IAP  log K(T, P)   Initial       Final       Delta

Anhydrite         0.00    -5.36     -5.36   9.970e+000  9.971e+000  4.800e-004
Halite           -0.65     0.93      1.59   0.000e+000           0  0.000e+000

-----------------------------Solution composition------------------------------

	Elements           Molality       Moles

	Ca               2.949e-002  2.949e-002
	Cl               4.000e+000  4.000e+000
	Na               4.000e+000  4.000e+000
	S                2.949e-002  2.949e-002

----------------------------Description of solution----------------------------

                                       pH  =   6.009      Charge balance
                                       pe  =   4.000      Adjusted to redox equilibrium
       Specific Conductance (uS/cm, 100 oC) = 867780
                          Density (g/cm3)  =   1.09723
                               Volume (L)  =   1.12982
                        Activity of water  =   0.852
                           Ionic strength  =  4.118e+000
                       Mass of water (kg)  =  1.000e+000
                 Total alkalinity (eq/kg)  =  1.685e-013
                    Total carbon (mol/kg)  =  0.000e+000
                       Total CO2 (mol/kg)  =  0.000e+000
                      Temperature (deg C)  = 100.00
                  Electrical balance (eq)  = -1.595e-010
 Percent error, 100*(Cat-|An|)/(Cat+|An|)  =  -0.00
                               Iterations  =   6
                         Gamma iterations  =   3
                      Osmotic coefficient  =   1.10058
                         Density of water  =   0.95835
                                  Total H  = 1.110124e+002
                                  Total O  = 5.562417e+001

----------------------------Distribution of species----------------------------

                                                    MacInnes  MacInnes
                                MacInnes       Log       Log       Log    mole V
   Species          Molality    Activity  Molality  Activity     Gamma   cm3/mol

   OH-            1.321e-006  5.031e-007    -5.879    -6.298    -0.419      2.62
   H+             4.830e-007  9.787e-007    -6.316    -6.009     0.307      0.00
   H2O            5.551e+001  8.523e-001     1.744    -0.069     0.000     18.80
Ca           2.949e-002
   Ca+2           2.949e-002  1.359e-002    -1.530    -1.867    -0.336    -15.07
Cl           4.000e+000
   Cl-            4.000e+000  2.272e+000     0.602     0.356    -0.246     19.40
Na           4.000e+000
   Na+            4.000e+000  3.765e+000     0.602     0.576    -0.026      1.70
S(6)         2.949e-002
   SO4-2          2.949e-002  3.188e-004    -1.530    -3.497    -1.966     22.61
   HSO4-          8.384e-007  2.972e-007    -6.077    -6.527    -0.450     43.95

------------------------------Saturation indices-------------------------------

	Phase               SI** log IAP   log K(373 K,   1 atm)

	Anhydrite         0.00     -5.36   -5.36  CaSO4
	Glauberite       -1.04     -7.71   -6.66  Na2Ca(SO4)2
	Gypsum           -0.55     -5.50   -4.95  CaSO4:2H2O
	H2O(g)           -0.07     -0.07    0.00  H2O
	Halite           -0.65      0.93    1.59  NaCl
	Labile_S         -4.52    -10.19   -5.67  Na4Ca(SO4)3:2H2O
	Mirabilite       -3.37     -3.04    0.33  Na2SO4:10H2O
	Portlandite      -9.27    -14.46   -5.19  Ca(OH)2
	Thenardite       -1.62     -2.34   -0.72  Na2SO4

**For a gas, SI = log10(fugacity). For ideal gases, fugacity = pressure / 1 atm.
For a Peng-Robinson gas, fugacity = pressure * phi / 1 atm

Reaction step 19.

Using solution 1.	
Using pure phase assemblage 1.	
Using reaction 1.	

Reaction 1.	

	 5.000e-001 moles of the following reaction have been added:

	                 Relative
	Reactant            moles

	NaCl                 1.00000

	                 Relative
	Element             moles
	Cl                   1.00000
	Na                   1.00000

-------------------------------Phase assemblage--------------------------------

                                                      Moles in assemblage
Phase               SI  log IAP  log K(T, P)   Initial       Final       Delta

Anhydrite         0.00    -5.36     -5.36   9.971e+000  9.971e+000  6.957e-004
Halite           -0.51     1.07      1.59   0.000e+000           0  0.000e+000

-----------------------------Solution composition------------------------------

	Elements           Molality       Moles

	Ca               2.879e-002  2.879e-002
	Cl               4.500e+000  4.500e+000
	Na               4.500e+000  4.500e+000
	S                2.879e-002  2.879e-002

----------------------------Description of solution----------------------------

                                       pH  =   5.972      Charge balance
                                       pe  =   4.000      Adjusted to redox equilibrium
       Specific Conductance (uS/cm, 100 oC) = 1044861
                          Density (g/cm3)  =   1.11180
                               Volume (L)  =   1.14117
[...]
                 Total alkalinity (eq/kg)  =  3.089e-013
                    Total carbon (mol/kg)  =  0.000e+000
                       Total CO2 (mol/kg)  =  0.000e+000
                      Temperature (deg C)  = 100.00
                           Pressure (atm)  = 987.00
                  Electrical balance (eq)  =  1.211e-009
 Percent error, 100*(Cat-|An|)/(Cat+|An|)  =   0.00
                               Iterations  =  10
                         Gamma iterations  =   3
                      Osmotic coefficient  =   1.25779
                         Density of water  =   0.99974
                                  Total H  = 1.110124e+002
                                  Total O  = 5.563183e+001

----------------------------Distribution of species----------------------------

                                                    MacInnes  MacInnes
                                MacInnes       Log       Log       Log    mole V
   Species          Molality    Activity  Molality  Activity     Gamma   cm3/mol

   OH-            1.143e-006  3.370e-007    -5.942    -6.472    -0.530      2.05
   H+             3.587e-007  2.120e-006    -6.445    -5.674     0.772      0.00
   H2O            5.551e+001  7.397e-001     1.744    -0.131     0.000     18.02
Ca           3.140e-002
   Ca+2           3.140e-002  6.239e-002    -1.503    -1.205     0.298     -9.42
Cl           6.622e+000
   Cl-            6.622e+000  4.389e+000     0.821     0.642    -0.179     19.69
Na           6.622e+000
   Na+            6.622e+000  9.854e+000     0.821     0.994     0.173      3.84
S(6)         3.140e-002
   SO4-2          3.140e-002  2.267e-004    -1.503    -3.644    -2.141     18.78
   HSO4-          7.843e-007  2.200e-007    -6.106    -6.658    -0.552     41.55

------------------------------Saturation indices-------------------------------

	Phase               SI** log IAP   log K(373 K, 987 atm)

	Anhydrite         0.00     -4.85   -4.85  CaSO4
	Glauberite       -0.75     -6.51   -5.76  Na2Ca(SO4)2
	Gypsum           -0.56     -5.11   -4.55  CaSO4:2H2O
	H2O(g)            0.12     -0.13   -0.25  H2O
	Halite            0.00      1.64    1.64  NaCl
	Labile_S         -1.38     -8.43   -7.05  Na4Ca(SO4)3:2H2O
	Mirabilite       -3.43     -2.97    0.46  Na2SO4:10H2O
	Portlandite      -9.03    -14.15   -5.12  Ca(OH)2
	Thenardite       -1.31     -1.66   -0.35  Na2SO4

**For a gas, SI = log10(fugacity). For ideal gases, fugacity = pressure / 1 atm.
For a Peng-Robinson gas, fugacity = pressure * phi / 1 atm

Reaction step 25.

Using solution 1.	
Using pure phase assemblage 1.	
Using temperature 1.	
Using pressure 1.	
Using reaction 1.	

Reaction 1.	

	 5.000e-001 moles of the following reaction have been added:

	                 Relative
	Reactant            moles

	NaCl                 1.00000

	                 Relative
	Element             moles
	Cl                   1.00000
	Na                   1.00000

-------------------------------Phase assemblage--------------------------------

                                                      Moles in assemblage
Phase               SI  log IAP  log K(T, P)   Initial       Final       Delta

Anhydrite         0.00    -4.85     -4.85   9.969e+000  9.969e+000  5.548e-007
Halite            0.00     1.64      1.64   3.782e-001  8.782e-001  5.000e-001

-----------------------------Solution composition------------------------------

	Elements           Molality       Moles

	Ca               3.140e-002  3.140e-002
	Cl               6.622e+000  6.622e+000
	Na               6.622e+000  6.622e+000
	S                3.140e-002  3.140e-002

----------------------------Description of solution----------------------------

                                       pH  =   5.674      Charge balance
                                       pe  =   4.000      Adjusted to redox equilibrium
       Specific Conductance (uS/cm, 100 oC) = 1601957
                          Density (g/cm3)  =   1.20320
                               Volume (L)  =   1.15798
                        Activity of water  =   0.740
                           Ionic strength  =  6.747e+000
                       Mass of water (kg)  =  1.000e+000
                 Total alkalinity (eq/kg)  =  3.082e-013
                    Total carbon (mol/kg)  =  0.000e+000
                       Total CO2 (mol/kg)  =  0.000e+000
                      Temperature (deg C)  = 100.00
                           Pressure (atm)  = 987.00
                  Electrical balance (eq)  =  3.100e-009
 Percent error, 100*(Cat-|An|)/(Cat+|An|)  =   0.00
                               Iterations  =   2
                         Gamma iterations  =   2
                      Osmotic coefficient  =   1.25779
                         Density of water  =   0.99974
                                  Total H  = 1.110124e+002
                                  Total O  = 5.563183e+001

----------------------------Distribution of species----------------------------

                                                    MacInnes  MacInnes
                                MacInnes       Log       Log       Log    mole V
   Species          Molality    Activity  Molality  Activity     Gamma   cm3/mol

   OH-            1.143e-006  3.370e-007    -5.942    -6.472    -0.530      2.05
   H+             3.586e-007  2.120e-006    -6.445    -5.674     0.772      0.00
   H2O            5.551e+001  7.397e-001     1.744    -0.131     0.000     18.02
Ca           3.140e-002
   Ca+2           3.140e-002  6.239e-002    -1.503    -1.205     0.298     -9.42
Cl           6.622e+000
   Cl-            6.622e+000  4.389e+000     0.821     0.642    -0.179     19.69
Na           6.622e+000
   Na+            6.622e+000  9.854e+000     0.821     0.994     0.173      3.84
S(6)         3.140e-002
   SO4-2          3.140e-002  2.267e-004    -1.503    -3.645    -2.141     18.78
   HSO4-          7.843e-007  2.200e-007    -6.106    -6.658    -0.552     41.55

------------------------------Saturation indices-------------------------------

	Phase               SI** log IAP   log K(373 K, 987 atm)

	Anhydrite         0.00     -4.85   -4.85  CaSO4
	Glauberite       -0.75     -6.51   -5.76  Na2Ca(SO4)2
	Gypsum           -0.56     -5.11   -4.55  CaSO4:2H2O
	H2O(g)            0.12     -0.13   -0.25  H2O
	Halite            0.00      1.64    1.64  NaCl
	Labile_S         -1.38     -8.43   -7.05  Na4Ca(SO4)3:2H2O
	Mirabilite       -3.43     -2.97    0.46  Na2SO4:10H2O
	Portlandite      -9.03    -14.15   -5.12  Ca(OH)2
	Thenardite       -1.31     -1.66   -0.35  Na2SO4

**For a gas, SI = log10(fugacity). For ideal gases, fugacity = pressure / 1 atm.
For a Peng-Robinson gas, fugacity = pressure * phi / 1 atm

Reaction step 26.

Using solution 1.	
Using pure phase assemblage 1.	
Using temperature 1.	
Using pressure 1.	
Using reaction 1.	

Reaction 1.	

	 5.000e-001 moles of the following reaction have been added:

	                 Relative
	Reactant            moles

	NaCl                 1.00000

	                 Relative
	Element             moles
	Cl                   1.00000
	Na                   1.00000

-------------------------------Phase assemblage--------------------------------

                                                      Moles in assemblage
Phase               SI  log IAP  log K(T, P)   Initial       Final       Delta

Anhydrite         0.00    -4.85     -4.85   9.969e+000  9.969e+000 -6.307e-009
Halite            0.00     1.64      1.64   8.782e-001  1.378e+000  5.000e-001

-----------------------------Solution composition------------------------------

	Elements           Molality       Moles

	Ca               3.140e-002  3.140e-002
	Cl               6.622e+000  6.622e+000
	Na               6.622e+000  6.622e+000
	S                3.140e-002  3.140e-002

----------------------------Description of solution----------------------------

                                       pH  =   5.674      Charge balance
                                       pe  =   4.000      Adjusted to redox equilibrium
       Specific Conductance (uS/cm, 100 oC) = 1601957
                          Density (g/cm3)  =   1.20320
                               Volume (L)  =   1.15798
                        Activity of water  =   0.740
                           Ionic strength  =  6.747e+000
                       Mass of water (kg)  =  1.000e+000
                 Total alkalinity (eq/kg)  =  3.081e-013
                    Total carbon (mol/kg)  =  0.000e+000
                       Total CO2 (mol/kg)  =  0.000e+000
                      Temperature (deg C)  = 100.00
                           Pressure (atm)  = 987.00
                  Electrical balance (eq)  =  3.100e-009
 Percent error, 100*(Cat-|An|)/(Cat+|An|)  =   0.00
                               Iterations  =   1
                         Gamma iterations  =   1
                      Osmotic coefficient  =   1.25779
                         Density of water  =   0.99974
                                  Total H  = 1.110124e+002
                                  Total O  = 5.563183e+001

----------------------------Distribution of species----------------------------

                                                    MacInnes  MacInnes
                                MacInnes       Log       Log       Log    mole V
   Species          Molality    Activity  Molality  Activity     Gamma   cm3/mol

   OH-            1.143e-006  3.370e-007    -5.942    -6.472    -0.530      2.05
   H+             3.586e-007  2.120e-006    -6.445    -5.674     0.772      0.00
   H2O            5.551e+001  7.397e-001     1.744    -0.131     0.000     18.02
Ca           3.140e-002
   Ca+2           3.140e-002  6.239e-002    -1.503    -1.205     0.298     -9.42
Cl           6.622e+000
   Cl-            6.622e+000  4.389e+000     0.821     0.642    -0.179     19.69
Na           6.622e+000
   Na+            6.622e+000  9.854e+000     0.821     0.994     0.173      3.84
S(6)         3.140e-002
   SO4-2          3.140e-002  2.267e-004    -1.503    -3.645    -2.141     18.78
   HSO4-          7.843e-007  2.200e-007    -6.106    -6.658    -0.552     41.55

------------------------------Saturation indices-------------------------------

	Phase               SI** log IAP   log K(373 K, 987 atm)

	Anhydrite         0.00     -4.85   -4.85  CaSO4
	Glauberite       -0.75     -6.51   -5.76  Na2Ca(SO4)2
	Gypsum           -0.56     -5.11   -4.55  CaSO4:2H2O
	H2O(g)            0.12     -0.13   -0.25  H2O
	Halite            0.00      1.64    1.64  NaCl
	Labile_S         -1.38     -8.43   -7.05  Na4Ca(SO4)3:2H2O
	Mirabilite       -3.43     -2.97    0.46  Na2SO4:10H2O
	Portlandite      -9.03    -14.15   -5.12  Ca(OH)2
	Thenardite       -1.31     -1.66   -0.35  Na2SO4

**For a gas, SI = log10(fugacity). For ideal gases, fugacity = pressure / 1 atm.
For a Peng-Robinson gas, fugacity = pressure * phi / 1 atm

Reaction step 27.

Using solution 1.	
Using pure phase assemblage 1.	
Using temperature 1.	
Using pressure 1.	
Using reaction 1.	

Reaction 1.	

	 5.000e-001 moles of the following reaction have been added:

	                 Relative
	Reactant            moles

	NaCl                 1.00000

	                 Relative
	Element             moles
	Cl                   1.00000
	Na                   1.00000

-------------------------------Phase assemblage--------------------------------

                                                      Moles in assemblage
Phase               SI  log IAP  log K(T, P)   Initial       Final       Delta

Anhydrite         0.00    -4.85     -4.85   9.969e+000  9.969e+000  1.102e-010
Halite            0.00     1.64      1.64   1.378e+000  1.878e+000  5.000e-001

-----------------------------Solution composition------------------------------

	Elements           Molality       Moles

	Ca               3.140e-002  3.140e-002
	Cl               6.622e+000  6.622e+000
	Na               6.622e+000  6.622e+000
	S                3.140e-002  3.140e-002

----------------------------Description of solution----------------------------

                                       pH  =   5.674      Charge balance
                                       pe  =   4.000      Adjusted to redox equilibrium
       Specific Conductance (uS/cm, 100 oC) = 1601957
                          Density (g/cm3)  =   1.20320
                               Volume (L)  =   1.15798
                        Activity of water  =   0.740
                           Ionic strength  =  6.747e+000
                       Mass of water (kg)  =  1.000e+000
                 Total alkalinity (eq/kg)  =  3.081e-013
                    Total carbon (mol/kg)  =  0.000e+000
                       Total CO2 (mol/kg)  =  0.000e+000
                      Temperature (deg C)  = 100.00
                           Pressure (atm)  = 987.00
                  Electrical balance (eq)  =  3.100e-009
 Percent error, 100*(Cat-|An|)/(Cat+|An|)  =   0.00
                               Iterations  =   1
                         Gamma iterations  =   1
                      Osmotic coefficient  =   1.25779
                         Density of water  =   0.99974
                                  Total H  = 1.110124e+002
                                  Total O  = 5.563183e+001

----------------------------Distribution of species----------------------------

                                                    MacInnes  MacInnes
                                MacInnes       Log       Log       Log    mole V
   Species          Molality    Activity  Molality  Activity     Gamma   cm3/mol

   OH-            1.143e-006  3.370e-007    -5.942    -6.472    -0.530      2.05
   H+             3.586e-007  2.120e-006    -6.445    -5.674     0.772      0.00
   H2O            5.551e+001  7.397e-001     1.744    -0.131     0.000     18.02
Ca           3.140e-002
   Ca+2           3.140e-002  6.239e-002    -1.503    -1.205     0.298     -9.42
Cl           6.622e+000
   Cl-            6.622e+000  4.389e+000     0.821     0.642    -0.179     19.69
Na           6.622e+000
   Na+            6.622e+000  9.854e+000     0.821     0.994     0.173      3.84
S(6)         3.140e-002
   SO4-2          3.140e-002  2.267e-004    -1.503    -3.645    -2.141     18.78
   HSO4-          7.843e-007  2.200e-007    -6.106    -6.658    -0.552     41.55

------------------------------Saturation indices-------------------------------

	Phase               SI** log IAP   log K(373 K, 987 atm)

	Anhydrite         0.00     -4.85   -4.85  CaSO4
	Glauberite       -0.75     -6.51   -5.76  Na2Ca(SO4)2
	Gypsum           -0.56     -5.11   -4.55  CaSO4:2H2O
	H2O(g)            0.12     -0.13   -0.25  H2O
	Halite            0.00      1.64    1.64  NaCl
	Labile_S         -1.38     -8.43   -7.05  Na4Ca(SO4)3:2H2O
	Mirabilite       -3.43     -2.97    0.46  Na2SO4:10H2O
	Portlandite      -9.03    -14.15   -5.12  Ca(OH)2
	Thenardite       -1.31     -1.66   -0.35  Na2SO4

**For a gas, SI = log10(fugacity). For ideal gases, fugacity = pressure / 1 atm.
For a Peng-Robinson gas, fugacity = pressure * phi / 1 atm

Reaction step 28.

Using solution 1.	
Using pure phase assemblage 1.	
Using temperature 1.	
Using pressure 1.	
Using reaction 1.	

Reaction 1.	

	 5.000e-001 moles of the following reaction have been added:

	                 Relative
	Reactant            moles

	NaCl                 1.00000

	                 Relative
	Element             moles
	Cl                   1.00000
	Na                   1.00000

-------------------------------Phase assemblage--------------------------------

                                                      Moles in assemblage
Phase               SI  log IAP  log K(T, P)   Initial       Final       Delta

Anhydrite         0.00    -4.85     -4.85   9.969e+000  9.969e+000 -1.933e-012
Halite            0.00     1.64      1.64   1.878e+000  2.378e+000  5.000e-001

-----------------------------Solution composition------------------------------

	Elements           Molality       Moles

	Ca               3.140e-002  3.140e-002
	Cl               6.622e+000  6.622e+000
	Na               6.622e+000  6.622e+000
	S                3.140e-002  3.140e-002

----------------------------Description of solution----------------------------

                                       pH  =   5.674      Charge balance
                                       pe  =   4.000      Adjusted to redox equilibrium
       Specific Conductance (uS/cm, 100 oC) = 1601957
                          Density (g/cm3)  =   1.20320
                               Volume (L)  =   1.15798
                        Activity of water  =   0.740
                           Ionic strength  =  6.747e+000
                       Mass of water (kg)  =  1.000e+000
                 Total alkalinity (eq/kg)  =  3.082e-013
                    Total carbon (mol/kg)  =  0.000e+000
                       Total CO2 (mol/kg)  =  0.000e+000
                      Temperature (deg C)  = 100.00
                           Pressure (atm)  = 987.00
                  Electrical balance (eq)  =  3.100e-009
 Percent error, 100*(Cat-|An|)/(Cat+|An|)  =   0.00
                               Iterations  =   1
                         Gamma iterations  =   1
                      Osmotic coefficient  =   1.25779
                         Density of water  =   0.99974
                                  Total H  = 1.110124e+002
                                  Total O  = 5.563183e+001

----------------------------Distribution of species----------------------------

                                                    MacInnes  MacInnes
                                MacInnes       Log       Log       Log    mole V
   Species          Molality    Activity  Molality  Activity     Gamma   cm3/mol

   OH-            1.143e-006  3.370e-007    -5.942    -6.472    -0.530      2.05
   H+             3.586e-007  2.120e-006    -6.445    -5.674     0.772      0.00
   H2O            5.551e+001  7.397e-001     1.744    -0.131     0.000     18.02
Ca           3.140e-002
   Ca+2           3.140e-002  6.239e-002    -1.503    -1.205     0.298     -9.42
Cl           6.622e+000
   Cl-            6.622e+000  4.389e+000     0.821     0.642    -0.179     19.69
Na           6.622e+000
   Na+            6.622e+000  9.854e+000     0.821     0.994     0.173      3.84
S(6)         3.140e-002
   SO4-2          3.140e-002  2.267e-004    -1.503    -3.645    -2.141     18.78
   HSO4-          7.843e-007  2.200e-007    -6.106    -6.658    -0.552     41.55

------------------------------Saturation indices-------------------------------

	Phase               SI** log IAP   log K(373 K, 987 atm)

	Anhydrite         0.00     -4.85   -4.85  CaSO4
	Glauberite       -0.75     -6.51   -5.76  Na2Ca(SO4)2
	Gypsum           -0.56     -5.11   -4.55  CaSO4:2H2O
	H2O(g)            0.12     -0.13   -0.25  H2O
	Halite            0.00      1.64    1.64  NaCl
	Labile_S         -1.38     -8.43   -7.05  Na4Ca(SO4)3:2H2O
	Mirabilite       -3.43     -2.97    0.46  Na2SO4:10H2O
	Portlandite      -9.03    -14.15   -5.12  Ca(OH)2
	Thenardite       -1.31     -1.66   -0.35  Na2SO4

**For a gas, SI = log10(fugacity). For ideal gases, fugacity = pressure / 1 atm.
For a Peng-Robinson gas, fugacity = pressure * phi / 1 atm

------------------
End of simulation.
------------------

------------------------------------
Reading input data for simulation 6.
------------------------------------

-------------------------------
End of Run after 1.066 Seconds.
-------------------------------

