WARNING: Database file from DATABASE keyword is used; command line argument ignored.
   Input file: aquia
  Output file: aquia.out
Database file: ../database/phreeqc.dat

------------------
Reading data base.
------------------

	SOLUTION_MASTER_SPECIES
	SOLUTION_SPECIES
	PHASES
	EXCHANGE_MASTER_SPECIES
	EXCHANGE_SPECIES
	SURFACE_MASTER_SPECIES
	SURFACE_SPECIES
	RATES
	END
------------------------------------
Reading input data for simulation 1.
------------------------------------

	DATABASE ../database/phreeqc.dat
	SELECTED_OUTPUT 101
	    file                 aquia_101.sel
	USER_PUNCH 101
	    headings Mu
	    start
	10 PUNCH STR_F$(MU, 20, 12)
	20 PUNCH STR_F$(SC, 20, 10)
	    end
	EXCHANGE_SPECIES
	  H+ + X- = HX
	 log_k 3.0
	 gamma 9.0 0.0 3.4
	  Na+ + X- = NaX
	 log_k -0.5
	 gamma 4.0 0.075 0.5
	  K+ + X- = KX
	 log_k 0.902
	 gamma 3.5 0.015
	  Ca+2 + 2X- = CaX2
	 log_k 0.93
	 gamma 5.0 0.165
	  Mg+2 + 2X- = MgX2
	 log_k 0.614
	 gamma 5.5 0.20
	SOLUTION 0
	 units mol/kgw
	 pH 7.57
	 pe 8.0
	 temp 15
	 Ca 1.4000E-03
	 Alkalinity 2.8000E-03
	 Na 0.1e-3
	 K 0.05e-3
	 Cl 0.1e-3
	END
-------------------------------------------
Beginning of initial solution calculations.
-------------------------------------------

Initial solution 0.	

WARNING: USER_PUNCH: Headings count does not match number of calls to PUNCH.

-----------------------------Solution composition------------------------------

	Elements           Molality       Moles

	Alkalinity        2.800e-03   2.800e-03
	Ca                1.400e-03   1.400e-03
	Cl                1.000e-04   1.000e-04
	K                 5.000e-05   5.000e-05
	Na                1.000e-04   1.000e-04

----------------------------Description of solution----------------------------

                                       pH  =   7.570    
                                       pe  =   8.000    
      Specific Conductance (µS/cm,  15°C)  = 215
                          Density (g/cm³)  =   0.99929
                               Volume (L)  =   1.00095
                        Activity of water  =   1.000
                 Ionic strength (mol/kgw)  =   4.253e-03
                       Mass of water (kg)  =   1.000e+00
                    Total carbon (mol/kg)  =   2.971e-03
                       Total CO2 (mol/kg)  =   2.971e-03
                         Temperature (°C)  =  15.00
                  Electrical balance (eq)  =   5.000e-05
 Percent error, 100*(Cat-|An|)/(Cat+|An|)  =   0.87
                               Iterations  =   7
                                  Total H  = 1.110152e+02
                                  Total O  = 5.551495e+01

----------------------------Distribution of species----------------------------

                                               Log       Log       Log    mole V
   Species          Molality    Activity  Molality  Activity     Gamma   cm³/mol

   OH-             1.808e-07   1.685e-07    -6.743    -6.773    -0.030     -4.59
   H+              2.867e-08   2.692e-08    -7.543    -7.570    -0.027      0.00
   H2O             5.551e+01   9.999e-01     1.744    -0.000     0.000     18.03
C(4)          2.971e-03
   HCO3-           2.750e-03   2.570e-03    -2.561    -2.590    -0.029     23.81
   CO2             1.813e-04   1.814e-04    -3.742    -3.741     0.000     33.93
   CaHCO3+         3.019e-05   2.824e-05    -4.520    -4.549    -0.029      9.25
   CaCO3           5.294e-06   5.300e-06    -5.276    -5.276     0.000    -14.63
   CO3-2           4.665e-06   3.560e-06    -5.331    -5.449    -0.117     -6.30
   NaHCO3          1.427e-07   1.429e-07    -6.845    -6.845     0.000      1.80
   NaCO3-          3.931e-09   3.668e-09    -8.405    -8.436    -0.030     -2.15
   (CO2)2          4.255e-10   4.259e-10    -9.371    -9.371     0.000     67.86
Ca            1.400e-03
   Ca+2            1.365e-03   1.041e-03    -2.865    -2.983    -0.118    -18.20
   CaHCO3+         3.019e-05   2.824e-05    -4.520    -4.549    -0.029      9.25
   CaCO3           5.294e-06   5.300e-06    -5.276    -5.276     0.000    -14.63
   CaOH+           6.878e-09   6.418e-09    -8.163    -8.193    -0.030     (0)  
Cl            1.000e-04
   Cl-             1.000e-04   9.326e-05    -4.000    -4.030    -0.030     17.71
H(0)          1.136e-34
   H2              5.680e-35   5.685e-35   -34.246   -34.245     0.000     28.62
K             5.000e-05
   K+              5.000e-05   4.662e-05    -4.301    -4.331    -0.030      8.66
Na            1.000e-04
   Na+             9.985e-05   9.324e-05    -4.001    -4.030    -0.030     -2.04
   NaHCO3          1.427e-07   1.429e-07    -6.845    -6.845     0.000      1.80
   NaCO3-          3.931e-09   3.668e-09    -8.405    -8.436    -0.030     -2.15
   NaOH            1.570e-21   1.571e-21   -20.804   -20.804     0.000     (0)  
O(0)          1.180e-27
   O2              5.899e-28   5.905e-28   -27.229   -27.229     0.000     29.51

------------------------------Saturation indices-------------------------------

  Phase               SI** log IAP   log K(288 K,   1 atm)

  Aragonite        -0.15     -8.43   -8.28  CaCO3
  Calcite          -0.01     -8.43   -8.42  CaCO3
  CO2(g)           -2.40     -3.74   -1.34  CO2
  H2(g)           -31.17    -34.25   -3.07  H2
  H2O(g)           -1.77     -0.00    1.77  H2O
  Halite           -9.62     -8.06    1.56  NaCl
  O2(g)           -24.42    -27.23   -2.81  O2
  Sylvite          -9.21     -8.36    0.85  KCl

**For a gas, SI = log10(fugacity). Fugacity = pressure * phi / 1 atm.
  For ideal gases, phi = 1.

------------------
End of simulation.
------------------

------------------------------------
Reading input data for simulation 2.
------------------------------------

	 SOLUTION 1-3 # Fill first 10 miles with just average infiltrating water; no X
	 units mol/kgw
	 pH 7.57
	 pe 8.0
	 temp 15
	 Ca 1.4000E-03
	 Alkalinity 2.8000E-03
	 Na 0.1e-3
	 K 0.05e-3
	 Cl 0.1e-3
	EQUILIBRIUM_PHASES 1-3
	 Calcite
	SAVE solution 1-3
	END
-------------------------------------------
Beginning of initial solution calculations.
-------------------------------------------

Initial solution 1.	

-----------------------------Solution composition------------------------------

	Elements           Molality       Moles

	Alkalinity        2.800e-03   2.800e-03
	Ca                1.400e-03   1.400e-03
	Cl                1.000e-04   1.000e-04
	K                 5.000e-05   5.000e-05
	Na                1.000e-04   1.000e-04

----------------------------Description of solution----------------------------

                                       pH  =   7.570    
                                       pe  =   8.000    
      Specific Conductance (µS/cm,  15°C)  = 215
                          Density (g/cm³)  =   0.99929
                               Volume (L)  =   1.00095
                        Activity of water  =   1.000
                 Ionic strength (mol/kgw)  =   4.253e-03
                       Mass of water (kg)  =   1.000e+00
                    Total carbon (mol/kg)  =   2.971e-03
                       Total CO2 (mol/kg)  =   2.971e-03
                         Temperature (°C)  =  15.00
                  Electrical balance (eq)  =   5.000e-05
 Percent error, 100*(Cat-|An|)/(Cat+|An|)  =   0.87
                               Iterations  =   7
                                  Total H  = 1.110152e+02
                                  Total O  = 5.551495e+01

----------------------------Distribution of species----------------------------

                                               Log       Log       Log    mole V
   Species          Molality    Activity  Molality  Activity     Gamma   cm³/mol

   OH-             1.808e-07   1.685e-07    -6.743    -6.773    -0.030     -4.59
   H+              2.867e-08   2.692e-08    -7.543    -7.570    -0.027      0.00
   H2O             5.551e+01   9.999e-01     1.744    -0.000     0.000     18.03
C(4)          2.971e-03
   HCO3-           2.750e-03   2.570e-03    -2.561    -2.590    -0.029     23.81
   CO2             1.813e-04   1.814e-04    -3.742    -3.741     0.000     33.93
   CaHCO3+         3.019e-05   2.824e-05    -4.520    -4.549    -0.029      9.25
   CaCO3           5.294e-06   5.300e-06    -5.276    -5.276     0.000    -14.63
   CO3-2           4.665e-06   3.560e-06    -5.331    -5.449    -0.117     -6.30
   NaHCO3          1.427e-07   1.429e-07    -6.845    -6.845     0.000      1.80
   NaCO3-          3.931e-09   3.668e-09    -8.405    -8.436    -0.030     -2.15
   (CO2)2          4.255e-10   4.259e-10    -9.371    -9.371     0.000     67.86
Ca            1.400e-03
   Ca+2            1.365e-03   1.041e-03    -2.865    -2.983    -0.118    -18.20
   CaHCO3+         3.019e-05   2.824e-05    -4.520    -4.549    -0.029      9.25
   CaCO3           5.294e-06   5.300e-06    -5.276    -5.276     0.000    -14.63
   CaOH+           6.878e-09   6.418e-09    -8.163    -8.193    -0.030     (0)  
Cl            1.000e-04
   Cl-             1.000e-04   9.326e-05    -4.000    -4.030    -0.030     17.71
H(0)          1.136e-34
   H2              5.680e-35   5.685e-35   -34.246   -34.245     0.000     28.62
K             5.000e-05
   K+              5.000e-05   4.662e-05    -4.301    -4.331    -0.030      8.66
Na            1.000e-04
   Na+             9.985e-05   9.324e-05    -4.001    -4.030    -0.030     -2.04
   NaHCO3          1.427e-07   1.429e-07    -6.845    -6.845     0.000      1.80
   NaCO3-          3.931e-09   3.668e-09    -8.405    -8.436    -0.030     -2.15
   NaOH            1.570e-21   1.571e-21   -20.804   -20.804     0.000     (0)  
O(0)          1.180e-27
   O2              5.899e-28   5.905e-28   -27.229   -27.229     0.000     29.51

------------------------------Saturation indices-------------------------------

  Phase               SI** log IAP   log K(288 K,   1 atm)

  Aragonite        -0.15     -8.43   -8.28  CaCO3
  Calcite          -0.01     -8.43   -8.42  CaCO3
  CO2(g)           -2.40     -3.74   -1.34  CO2
  H2(g)           -31.17    -34.25   -3.07  H2
  H2O(g)           -1.77     -0.00    1.77  H2O
  Halite           -9.62     -8.06    1.56  NaCl
  O2(g)           -24.42    -27.23   -2.81  O2
  Sylvite          -9.21     -8.36    0.85  KCl

**For a gas, SI = log10(fugacity). Fugacity = pressure * phi / 1 atm.
  For ideal gases, phi = 1.

-----------------------------------------
Beginning of batch-reaction calculations.
-----------------------------------------

Reaction step 1.

Using solution 1.	
Using pure phase assemblage 1.	

-------------------------------Phase assemblage--------------------------------

                                                      Moles in assemblage
Phase               SI  log IAP  log K(T, P)   Initial       Final       Delta

Calcite           0.00    -8.42     -8.42    1.000e+01   1.000e+01  -3.096e-06

-----------------------------Solution composition------------------------------

	Elements           Molality       Moles

	C                 2.974e-03   2.974e-03
	Ca                1.403e-03   1.403e-03
	Cl                1.000e-04   1.000e-04
	K                 5.000e-05   5.000e-05
	Na                1.000e-04   1.000e-04

----------------------------Description of solution----------------------------

                                       pH  =   7.578      Charge balance
                                       pe  =  -1.984      Adjusted to redox equilibrium
      Specific Conductance (µS/cm,  15°C)  = 215
                          Density (g/cm³)  =   0.99929
                               Volume (L)  =   1.00095
                        Activity of water  =   1.000
                 Ionic strength (mol/kgw)  =   4.262e-03
                       Mass of water (kg)  =   1.000e+00
                 Total alkalinity (eq/kg)  =   2.806e-03
                       Total CO2 (mol/kg)  =   2.974e-03
                         Temperature (°C)  =  15.00
                  Electrical balance (eq)  =   5.000e-05
 Percent error, 100*(Cat-|An|)/(Cat+|An|)  =   0.87
                               Iterations  =  16
                                  Total H  = 1.110152e+02
                                  Total O  = 5.551496e+01

----------------------------Distribution of species----------------------------

                                               Log       Log       Log    mole V
   Species          Molality    Activity  Molality  Activity     Gamma   cm³/mol

   OH-             1.841e-07   1.716e-07    -6.735    -6.766    -0.030     -4.59
   H+              2.816e-08   2.644e-08    -7.550    -7.578    -0.027      0.00
   H2O             5.551e+01   9.999e-01     1.744    -0.000     0.000     18.03
C(-4)         1.896e-23
   CH4             1.896e-23   1.897e-23   -22.722   -22.722     0.000     34.53
C(4)          2.974e-03
   HCO3-           2.755e-03   2.575e-03    -2.560    -2.589    -0.029     23.81
   CO2             1.784e-04   1.786e-04    -3.749    -3.748     0.000     33.93
   CaHCO3+         3.031e-05   2.835e-05    -4.518    -4.547    -0.029      9.25
   CaCO3           5.411e-06   5.417e-06    -5.267    -5.266     0.000    -14.63
   CO3-2           4.761e-06   3.632e-06    -5.322    -5.440    -0.117     -6.30
   NaHCO3          1.430e-07   1.432e-07    -6.845    -6.844     0.000      1.80
   NaCO3-          4.011e-09   3.742e-09    -8.397    -8.427    -0.030     -2.15
   (CO2)2          4.121e-10   4.125e-10    -9.385    -9.385     0.000     67.86
Ca            1.403e-03
   Ca+2            1.367e-03   1.043e-03    -2.864    -2.982    -0.118    -18.20
   CaHCO3+         3.031e-05   2.835e-05    -4.518    -4.547    -0.029      9.25
   CaCO3           5.411e-06   5.417e-06    -5.267    -5.266     0.000    -14.63
   CaOH+           7.016e-09   6.546e-09    -8.154    -8.184    -0.030     (0)  
Cl            1.000e-04
   Cl-             1.000e-04   9.326e-05    -4.000    -4.030    -0.030     17.71
H(0)          1.018e-14
   H2              5.091e-15   5.096e-15   -14.293   -14.293     0.000     28.62
K             5.000e-05
   K+              5.000e-05   4.662e-05    -4.301    -4.331    -0.030      8.66
Na            1.000e-04
   Na+             9.985e-05   9.324e-05    -4.001    -4.030    -0.030     -2.04
   NaHCO3          1.430e-07   1.432e-07    -6.845    -6.844     0.000      1.80
   NaCO3-          4.011e-09   3.742e-09    -8.397    -8.427    -0.030     -2.15
   NaOH            1.598e-21   1.600e-21   -20.796   -20.796     0.000     (0)  
O(0)          0.000e+00
   O2              0.000e+00   0.000e+00   -67.134   -67.134     0.000     29.51

------------------------------Saturation indices-------------------------------

  Phase               SI** log IAP   log K(288 K,   1 atm)

  Aragonite        -0.14     -8.42   -8.28  CaCO3
  Calcite           0.00     -8.42   -8.42  CaCO3
  CH4(g)          -20.03    -22.72   -2.70  CH4
  CO2(g)           -2.41     -3.75   -1.34  CO2
  H2(g)           -11.22    -14.29   -3.07  H2
  H2O(g)           -1.77     -0.00    1.77  H2O
  Halite           -9.62     -8.06    1.56  NaCl
  O2(g)           -64.32    -67.13   -2.81  O2
  Sylvite          -9.21     -8.36    0.85  KCl

**For a gas, SI = log10(fugacity). Fugacity = pressure * phi / 1 atm.
  For ideal gases, phi = 1.

------------------
End of simulation.
------------------

------------------------------------
Reading input data for simulation 3.
------------------------------------

	 SOLUTION 4-21 # Fill flowline with 18% seawater, CEC = 0.20 M
	 units mol/kgw
	 pH 6.80
	 pe 8.0
	 temp 15
	 dens 1.023
	 Ca 4.3790E-03
	 Mg 9.9162E-03
	 Na 87.381E-03
	 K 1.9044E-03
	 Cl 101.84E-03
	 Alkalinity 15.502E-03
	 S(6) 0.2670E-03
	EQUILIBRIUM_PHASES 4-21
	 Calcite
	SAVE solution 4-21
	END
-------------------------------------------
Beginning of initial solution calculations.
-------------------------------------------

Initial solution 4.	

-----------------------------Solution composition------------------------------

	Elements           Molality       Moles

	Alkalinity        1.550e-02   1.550e-02
	Ca                4.379e-03   4.379e-03
	Cl                1.018e-01   1.018e-01
	K                 1.904e-03   1.904e-03
	Mg                9.916e-03   9.916e-03
	Na                8.738e-02   8.738e-02
	S(6)              2.670e-04   2.670e-04

----------------------------Description of solution----------------------------

                                       pH  =   6.800    
                                       pe  =   8.000    
      Specific Conductance (µS/cm,  15°C)  = 9352
                          Density (g/cm³)  =   1.00442
                               Volume (L)  =   1.00285
                        Activity of water  =   0.996
                 Ionic strength (mol/kgw)  =   1.301e-01
                       Mass of water (kg)  =   1.000e+00
                    Total carbon (mol/kg)  =   1.994e-02
                       Total CO2 (mol/kg)  =   1.994e-02
                         Temperature (°C)  =  15.00
                  Electrical balance (eq)  =  -2.000e-07
 Percent error, 100*(Cat-|An|)/(Cat+|An|)  =  -0.00
                               Iterations  =   8
                                  Total H  = 1.110279e+02
                                  Total O  = 5.556265e+01

----------------------------Distribution of species----------------------------

                                               Log       Log       Log    mole V
   Species          Molality    Activity  Molality  Activity     Gamma   cm³/mol

   H+              1.940e-07   1.585e-07    -6.712    -6.800    -0.088      0.00
   OH-             3.829e-08   2.851e-08    -7.417    -7.545    -0.128     -4.20
   H2O             5.551e+01   9.962e-01     1.744    -0.002     0.000     18.03
C(4)          1.994e-02
   HCO3-           1.421e-02   1.102e-02    -1.847    -1.958    -0.111     24.39
   CO2             4.462e-03   4.597e-03    -2.351    -2.338     0.013     33.93
   MgHCO3+         5.928e-04   4.466e-04    -3.227    -3.350    -0.123      5.32
   NaHCO3          4.287e-04   4.417e-04    -3.368    -3.355     0.013      1.80
   CaHCO3+         2.259e-04   1.770e-04    -3.646    -3.752    -0.106      9.39
   MgCO3           7.377e-06   7.602e-06    -5.132    -5.119     0.013    -17.08
   CO3-2           7.175e-06   2.592e-06    -5.144    -5.586    -0.442     -5.15
   CaCO3           5.473e-06   5.640e-06    -5.262    -5.249     0.013    -14.63
   NaCO3-          2.500e-06   1.926e-06    -5.602    -5.715    -0.113     -1.34
   (CO2)2          2.654e-07   2.734e-07    -6.576    -6.563     0.013     67.86
Ca            4.379e-03
   Ca+2            4.132e-03   1.522e-03    -2.384    -2.818    -0.434    -17.59
   CaHCO3+         2.259e-04   1.770e-04    -3.646    -3.752    -0.106      9.39
   CaSO4           1.555e-05   1.602e-05    -4.808    -4.795     0.013      7.06
   CaCO3           5.473e-06   5.640e-06    -5.262    -5.249     0.013    -14.63
   CaOH+           2.061e-09   1.587e-09    -8.686    -8.799    -0.113     (0)  
   CaHSO4+         1.900e-11   1.464e-11   -10.721   -10.835    -0.113     (0)  
Cl            1.018e-01
   Cl-             1.018e-01   7.646e-02    -0.992    -1.117    -0.124     17.96
H(0)          3.826e-33
   H2              1.913e-33   1.971e-33   -32.718   -32.705     0.013     28.62
K             1.904e-03
   K+              1.904e-03   1.424e-03    -2.720    -2.847    -0.126      8.89
   KSO4-           6.893e-07   5.344e-07    -6.162    -6.272    -0.111     34.06
Mg            9.916e-03
   Mg+2            9.276e-03   3.584e-03    -2.033    -2.446    -0.413    -20.74
   MgHCO3+         5.928e-04   4.466e-04    -3.227    -3.350    -0.123      5.32
   MgSO4           3.996e-05   4.118e-05    -4.398    -4.385     0.013      5.40
   MgCO3           7.377e-06   7.602e-06    -5.132    -5.119     0.013    -17.08
   MgOH+           4.068e-08   3.213e-08    -7.391    -7.493    -0.102     (0)  
Na            8.738e-02
   Na+             8.692e-02   6.724e-02    -1.061    -1.172    -0.112     -1.62
   NaHCO3          4.287e-04   4.417e-04    -3.368    -3.355     0.013      1.80
   NaSO4-          2.605e-05   2.019e-05    -4.584    -4.695    -0.111     16.83
   NaCO3-          2.500e-06   1.926e-06    -5.602    -5.715    -0.113     -1.34
   NaOH            1.861e-19   1.917e-19   -18.730   -18.717     0.013     (0)  
O(0)          9.462e-31
   O2              4.731e-31   4.875e-31   -30.325   -30.312     0.013     29.51
S(6)          2.670e-04
   SO4-2           1.848e-04   6.398e-05    -3.733    -4.194    -0.461     14.02
   MgSO4           3.996e-05   4.118e-05    -4.398    -4.385     0.013      5.40
   NaSO4-          2.605e-05   2.019e-05    -4.584    -4.695    -0.111     16.83
   CaSO4           1.555e-05   1.602e-05    -4.808    -4.795     0.013      7.06
   KSO4-           6.893e-07   5.344e-07    -6.162    -6.272    -0.111     34.06
   HSO4-           1.039e-09   8.000e-10    -8.983    -9.097    -0.113     39.73
   CaHSO4+         1.900e-11   1.464e-11   -10.721   -10.835    -0.113     (0)  

------------------------------Saturation indices-------------------------------

  Phase               SI** log IAP   log K(288 K,   1 atm)

  Anhydrite        -2.84     -7.01   -4.17  CaSO4
  Aragonite        -0.13     -8.40   -8.28  CaCO3
  Calcite           0.02     -8.40   -8.42  CaCO3
  CO2(g)           -1.00     -2.34   -1.34  CO2
  Dolomite          0.50    -16.44  -16.94  CaMg(CO3)2
  Gypsum           -2.43     -7.01   -4.59  CaSO4:2H2O
  H2(g)           -29.63    -32.71   -3.07  H2
  H2O(g)           -1.77     -0.00    1.77  H2O
  Halite           -3.85     -2.29    1.56  NaCl
  O2(g)           -27.50    -30.31   -2.81  O2
  Sylvite          -4.81     -3.96    0.85  KCl

**For a gas, SI = log10(fugacity). Fugacity = pressure * phi / 1 atm.
  For ideal gases, phi = 1.

-----------------------------------------
Beginning of batch-reaction calculations.
-----------------------------------------

Reaction step 1.

Using solution 4.	
Using pure phase assemblage 4.	

-------------------------------Phase assemblage--------------------------------

                                                      Moles in assemblage
Phase               SI  log IAP  log K(T, P)   Initial       Final       Delta

Calcite           0.00    -8.42     -8.42    1.000e+01   1.000e+01   5.888e-05

-----------------------------Solution composition------------------------------

	Elements           Molality       Moles

	C                 1.988e-02   1.988e-02
	Ca                4.320e-03   4.320e-03
	Cl                1.018e-01   1.018e-01
	K                 1.904e-03   1.904e-03
	Mg                9.916e-03   9.916e-03
	Na                8.738e-02   8.738e-02
	S                 2.670e-04   2.670e-04

----------------------------Description of solution----------------------------

                                       pH  =   6.791      Charge balance
                                       pe  =  11.980      Adjusted to redox equilibrium
      Specific Conductance (µS/cm,  15°C)  = 9347
                          Density (g/cm³)  =   1.00441
                               Volume (L)  =   1.00285
                        Activity of water  =   0.996
                 Ionic strength (mol/kgw)  =   1.299e-01
                       Mass of water (kg)  =   1.000e+00
                 Total alkalinity (eq/kg)  =   1.538e-02
                       Total CO2 (mol/kg)  =   1.988e-02
                         Temperature (°C)  =  15.00
                  Electrical balance (eq)  =  -2.000e-07
 Percent error, 100*(Cat-|An|)/(Cat+|An|)  =  -0.00
                               Iterations  =  15
                                  Total H  = 1.110279e+02
                                  Total O  = 5.556247e+01

----------------------------Distribution of species----------------------------

                                               Log       Log       Log    mole V
   Species          Molality    Activity  Molality  Activity     Gamma   cm³/mol

   H+              1.979e-07   1.617e-07    -6.703    -6.791    -0.088      0.00
   OH-             3.752e-08   2.794e-08    -7.426    -7.554    -0.128     -4.20
   H2O             5.551e+01   9.962e-01     1.744    -0.002     0.000     18.03
C(-4)         0.000e+00
   CH4             0.000e+00   0.000e+00  -126.732  -126.719     0.013     34.53
C(4)          1.988e-02
   HCO3-           1.410e-02   1.094e-02    -1.851    -1.961    -0.111     24.39
   CO2             4.520e-03   4.657e-03    -2.345    -2.332     0.013     33.93
   MgHCO3+         5.888e-04   4.437e-04    -3.230    -3.353    -0.123      5.32
   NaHCO3          4.256e-04   4.385e-04    -3.371    -3.358     0.013      1.80
   CaHCO3+         2.213e-04   1.734e-04    -3.655    -3.761    -0.106      9.39
   MgCO3           7.182e-06   7.400e-06    -5.144    -5.131     0.013    -17.08
   CO3-2           6.977e-06   2.521e-06    -5.156    -5.598    -0.442     -5.15
   CaCO3           5.257e-06   5.417e-06    -5.279    -5.266     0.013    -14.63
   NaCO3-          2.432e-06   1.874e-06    -5.614    -5.727    -0.113     -1.34
   (CO2)2          2.723e-07   2.806e-07    -6.565    -6.552     0.013     67.86
Ca            4.320e-03
   Ca+2            4.078e-03   1.502e-03    -2.390    -2.823    -0.434    -17.59
   CaHCO3+         2.213e-04   1.734e-04    -3.655    -3.761    -0.106      9.39
   CaSO4           1.536e-05   1.583e-05    -4.813    -4.801     0.013      7.06
   CaCO3           5.257e-06   5.417e-06    -5.279    -5.266     0.013    -14.63
   CaOH+           1.994e-09   1.536e-09    -8.700    -8.814    -0.113     (0)  
   CaHSO4+         1.916e-11   1.476e-11   -10.718   -10.831    -0.113     (0)  
Cl            1.018e-01
   Cl-             1.018e-01   7.647e-02    -0.992    -1.117    -0.124     17.96
H(0)          0.000e+00
   H2              0.000e+00   0.000e+00   -40.660   -40.647     0.013     28.62
K             1.904e-03
   K+              1.904e-03   1.424e-03    -2.720    -2.846    -0.126      8.89
   KSO4-           6.899e-07   5.349e-07    -6.161    -6.272    -0.111     34.06
Mg            9.916e-03
   Mg+2            9.280e-03   3.586e-03    -2.032    -2.445    -0.413    -20.74
   MgHCO3+         5.888e-04   4.437e-04    -3.230    -3.353    -0.123      5.32
   MgSO4           4.003e-05   4.124e-05    -4.398    -4.385     0.013      5.40
   MgCO3           7.182e-06   7.400e-06    -5.144    -5.131     0.013    -17.08
   MgOH+           3.989e-08   3.151e-08    -7.399    -7.502    -0.102     (0)  
Na            8.738e-02
   Na+             8.693e-02   6.725e-02    -1.061    -1.172    -0.111     -1.62
   NaHCO3          4.256e-04   4.385e-04    -3.371    -3.358     0.013      1.80
   NaSO4-          2.607e-05   2.021e-05    -4.584    -4.694    -0.111     16.83
   NaCO3-          2.432e-06   1.874e-06    -5.614    -5.727    -0.113     -1.34
   NaOH            1.824e-19   1.879e-19   -18.739   -18.726     0.013     (0)  
O(0)          7.231e-15
   O2              3.616e-15   3.725e-15   -14.442   -14.429     0.013     29.51
S(-2)         0.000e+00
   H2S             0.000e+00   0.000e+00  -125.684  -125.671     0.013     33.43
   HS-             0.000e+00   0.000e+00  -125.837  -125.965    -0.128     20.31
   S-2             0.000e+00   0.000e+00  -131.944  -132.399    -0.455     (0)  
   (H2S)2          0.000e+00   0.000e+00  -252.751  -252.738     0.013     30.48
S(6)          2.670e-04
   SO4-2           1.848e-04   6.404e-05    -3.733    -4.194    -0.460     14.02
   MgSO4           4.003e-05   4.124e-05    -4.398    -4.385     0.013      5.40
   NaSO4-          2.607e-05   2.021e-05    -4.584    -4.694    -0.111     16.83
   CaSO4           1.536e-05   1.583e-05    -4.813    -4.801     0.013      7.06
   KSO4-           6.899e-07   5.349e-07    -6.161    -6.272    -0.111     34.06
   HSO4-           1.061e-09   8.171e-10    -8.974    -9.088    -0.113     39.73
   CaHSO4+         1.916e-11   1.476e-11   -10.718   -10.831    -0.113     (0)  

------------------------------Saturation indices-------------------------------

  Phase               SI** log IAP   log K(288 K,   1 atm)

  Anhydrite        -2.85     -7.02   -4.17  CaSO4
  Aragonite        -0.14     -8.42   -8.28  CaCO3
  Calcite           0.00     -8.42   -8.42  CaCO3
  CH4(g)         -124.02   -126.72   -2.70  CH4
  CO2(g)           -0.99     -2.33   -1.34  CO2
  Dolomite          0.47    -16.47  -16.94  CaMg(CO3)2
  Gypsum           -2.43     -7.02   -4.59  CaSO4:2H2O
  H2(g)           -37.57    -40.65   -3.07  H2
  H2O(g)           -1.77     -0.00    1.77  H2O
  H2S(g)         -124.80   -132.76   -7.96  H2S
  Halite           -3.85     -2.29    1.56  NaCl
  O2(g)           -11.62    -14.43   -2.81  O2
  Sulfur          -93.25    -88.13    5.12  S
  Sylvite          -4.81     -3.96    0.85  KCl

**For a gas, SI = log10(fugacity). Fugacity = pressure * phi / 1 atm.
  For ideal gases, phi = 1.

------------------
End of simulation.
------------------

------------------------------------
Reading input data for simulation 4.
------------------------------------

	EXCHANGE 4-21
	 X 0.2
	 equilibrate 4
	END 
-------------------------------------------------------
Beginning of initial exchange-composition calculations.
-------------------------------------------------------

Exchange 4.	

X                2.000e-01 mol

	                               Equiv-    Equivalent      Log 
	Species             Moles      alents      Fraction     Gamma

	HX                4.554e-02   4.554e-02   2.277e-01    -2.714
	NaX               3.815e-02   3.815e-02   1.908e-01    -0.518
	MgX2              2.829e-02   5.657e-02   2.829e-01    -0.413
	CaX2              2.573e-02   5.146e-02   2.573e-01    -0.434
	KX                8.273e-03   8.273e-03   4.136e-02    -0.126

------------------
End of simulation.
------------------

------------------------------------
Reading input data for simulation 5.
------------------------------------

	MIX	13	
		11	0.9	
		13	0.1
	MIX	14	
		13	0.8	
		14	0.2
	MIX	15	
		14	0.7	
		15	0.3
	MIX	16	
		15	0.6	
		16	0.4
	MIX	17	
		16	0.5	
		17	0.5
	MIX	18	
		17	0.4	
		18	0.6
	MIX	19	
		18	0.3	
		19	0.7
	MIX	20	
		19	0.2	
		20	0.8
	MIX	21	
		20	0.1	
		21	0.9
	END
-----------------------------------------
Beginning of batch-reaction calculations.
-----------------------------------------

Reaction step 1.

Using mix 13.	

Mixture 13.	

	  9.000e-01 Solution 11	Solution after simulation 3.                           
	  1.000e-01 Solution 13	Solution after simulation 3.                           

-----------------------------Solution composition------------------------------

	Elements           Molality       Moles

	C                 1.988e-02   1.988e-02
	Ca                4.320e-03   4.320e-03
	Cl                1.018e-01   1.018e-01
	K                 1.904e-03   1.904e-03
	Mg                9.916e-03   9.916e-03
	Na                8.738e-02   8.738e-02
	S                 2.670e-04   2.670e-04

----------------------------Description of solution----------------------------

                                       pH  =   6.791      Charge balance
                                       pe  =  11.980      Adjusted to redox equilibrium
      Specific Conductance (µS/cm,  15°C)  = 9347
                          Density (g/cm³)  =   1.00441
                               Volume (L)  =   1.00285
                        Activity of water  =   0.996
                 Ionic strength (mol/kgw)  =   1.299e-01
                       Mass of water (kg)  =   1.000e+00
                 Total alkalinity (eq/kg)  =   1.538e-02
                       Total CO2 (mol/kg)  =   1.988e-02
                         Temperature (°C)  =  15.00
                  Electrical balance (eq)  =  -2.000e-07
 Percent error, 100*(Cat-|An|)/(Cat+|An|)  =  -0.00
                               Iterations  =   0
                                  Total H  = 1.110279e+02
                                  Total O  = 5.556247e+01

----------------------------Distribution of species----------------------------

                                               Log       Log       Log    mole V
   Species          Molality    Activity  Molality  Activity     Gamma   cm³/mol

   H+              1.979e-07   1.617e-07    -6.703    -6.791    -0.088      0.00
   OH-             3.752e-08   2.794e-08    -7.426    -7.554    -0.128     -4.20
   H2O             5.551e+01   9.962e-01     1.744    -0.002     0.000     18.03
C(-4)         0.000e+00
   CH4             0.000e+00   0.000e+00  -126.732  -126.719     0.013     34.53
C(4)          1.988e-02
   HCO3-           1.410e-02   1.094e-02    -1.851    -1.961    -0.111     24.39
   CO2             4.520e-03   4.657e-03    -2.345    -2.332     0.013     33.93
   MgHCO3+         5.888e-04   4.437e-04    -3.230    -3.353    -0.123      5.32
   NaHCO3          4.256e-04   4.385e-04    -3.371    -3.358     0.013      1.80
   CaHCO3+         2.213e-04   1.734e-04    -3.655    -3.761    -0.106      9.39
   MgCO3           7.182e-06   7.400e-06    -5.144    -5.131     0.013    -17.08
   CO3-2           6.977e-06   2.521e-06    -5.156    -5.598    -0.442     -5.15
   CaCO3           5.257e-06   5.417e-06    -5.279    -5.266     0.013    -14.63
   NaCO3-          2.432e-06   1.874e-06    -5.614    -5.727    -0.113     -1.34
   (CO2)2          2.723e-07   2.806e-07    -6.565    -6.552     0.013     67.86
Ca            4.320e-03
   Ca+2            4.078e-03   1.502e-03    -2.390    -2.823    -0.434    -17.59
   CaHCO3+         2.213e-04   1.734e-04    -3.655    -3.761    -0.106      9.39
   CaSO4           1.536e-05   1.583e-05    -4.813    -4.801     0.013      7.06
   CaCO3           5.257e-06   5.417e-06    -5.279    -5.266     0.013    -14.63
   CaOH+           1.994e-09   1.536e-09    -8.700    -8.814    -0.113     (0)  
   CaHSO4+         1.916e-11   1.476e-11   -10.718   -10.831    -0.113     (0)  
Cl            1.018e-01
   Cl-             1.018e-01   7.647e-02    -0.992    -1.117    -0.124     17.96
H(0)          0.000e+00
   H2              0.000e+00   0.000e+00   -40.660   -40.647     0.013     28.62
K             1.904e-03
   K+              1.904e-03   1.424e-03    -2.720    -2.846    -0.126      8.89
   KSO4-           6.899e-07   5.349e-07    -6.161    -6.272    -0.111     34.06
Mg            9.916e-03
   Mg+2            9.280e-03   3.586e-03    -2.032    -2.445    -0.413    -20.74
   MgHCO3+         5.888e-04   4.437e-04    -3.230    -3.353    -0.123      5.32
   MgSO4           4.003e-05   4.124e-05    -4.398    -4.385     0.013      5.40
   MgCO3           7.182e-06   7.400e-06    -5.144    -5.131     0.013    -17.08
   MgOH+           3.989e-08   3.151e-08    -7.399    -7.502    -0.102     (0)  
Na            8.738e-02
   Na+             8.693e-02   6.725e-02    -1.061    -1.172    -0.111     -1.62
   NaHCO3          4.256e-04   4.385e-04    -3.371    -3.358     0.013      1.80
   NaSO4-          2.607e-05   2.021e-05    -4.584    -4.694    -0.111     16.83
   NaCO3-          2.432e-06   1.874e-06    -5.614    -5.727    -0.113     -1.34
   NaOH            1.824e-19   1.879e-19   -18.739   -18.726     0.013     (0)  
O(0)          7.231e-15
   O2              3.616e-15   3.725e-15   -14.442   -14.429     0.013     29.51
S(-2)         0.000e+00
   H2S             0.000e+00   0.000e+00  -125.684  -125.671     0.013     33.43
   HS-             0.000e+00   0.000e+00  -125.837  -125.965    -0.128     20.31
   S-2             0.000e+00   0.000e+00  -131.944  -132.399    -0.455     (0)  
   (H2S)2          0.000e+00   0.000e+00  -252.751  -252.738     0.013     30.48
S(6)          2.670e-04
   SO4-2           1.848e-04   6.404e-05    -3.733    -4.194    -0.460     14.02
   MgSO4           4.003e-05   4.124e-05    -4.398    -4.385     0.013      5.40
   NaSO4-          2.607e-05   2.021e-05    -4.584    -4.694    -0.111     16.83
   CaSO4           1.536e-05   1.583e-05    -4.813    -4.801     0.013      7.06
   KSO4-           6.899e-07   5.349e-07    -6.161    -6.272    -0.111     34.06
   HSO4-           1.061e-09   8.171e-10    -8.974    -9.088    -0.113     39.73
   CaHSO4+         1.916e-11   1.476e-11   -10.718   -10.831    -0.113     (0)  

------------------------------Saturation indices-------------------------------

  Phase               SI** log IAP   log K(288 K,   1 atm)

  Anhydrite        -2.85     -7.02   -4.17  CaSO4
  Aragonite        -0.14     -8.42   -8.28  CaCO3
  Calcite           0.00     -8.42   -8.42  CaCO3
  CH4(g)         -124.02   -126.72   -2.70  CH4
  CO2(g)           -0.99     -2.33   -1.34  CO2
  Dolomite          0.47    -16.47  -16.94  CaMg(CO3)2
  Gypsum           -2.43     -7.02   -4.59  CaSO4:2H2O
  H2(g)           -37.57    -40.65   -3.07  H2
  H2O(g)           -1.77     -0.00    1.77  H2O
  H2S(g)         -124.80   -132.76   -7.96  H2S
  Halite           -3.85     -2.29    1.56  NaCl
  O2(g)           -11.62    -14.43   -2.81  O2
  Sulfur          -93.25    -88.13    5.12  S
  Sylvite          -4.81     -3.96    0.85  KCl

**For a gas, SI = log10(fugacity). Fugacity = pressure * phi / 1 atm.
  For ideal gases, phi = 1.

------------------
End of simulation.
------------------

------------------------------------
Reading input data for simulation 6.
------------------------------------

	PRINT
	 reset false
WARNING: Cell-lengths were read for 1 cells. Last value is used till cell 11.
WARNING: Dispersivities were read for 1 cells. Last value is used till cell 11.
