   Input file: aquia
  Output file: aquia.out
Database file: ../database/phreeqc.dat

------------------
Reading data base.
------------------

	SOLUTION_MASTER_SPECIES
	SOLUTION_SPECIES
	PHASES
	EXCHANGE_MASTER_SPECIES
	EXCHANGE_SPECIES
	SURFACE_MASTER_SPECIES
	SURFACE_SPECIES
	RATES
	END
------------------------------------
Reading input data for simulation 1.
------------------------------------

	DATABASE ../database/phreeqc.dat
	EXCHANGE_SPECIES
	  H+ + X- = HX
	 log_k 3.0
	 gamma 9.0 0.0 3.4
	  Na+ + X- = NaX
	 log_k -0.5
	 gamma 4.0 0.075 0.5
	  K+ + X- = KX
	 log_k 0.902
	 gamma 3.5 0.015
	  Ca+2 + 2X- = CaX2
	 log_k 0.93
	 gamma 5.0 0.165
	  Mg+2 + 2X- = MgX2
	 log_k 0.614
	 gamma 5.5 0.20
	SOLUTION 0
	 units mol/kgw
	 pH 7.57
	 pe 8.0
	 temp 15
	 Ca 1.4000E-03
	 Alkalinity 2.8000E-03
	 Na 0.1e-3
	 K 0.05e-3
	 Cl 0.1e-3
	END
-------------------------------------------
Beginning of initial solution calculations.
-------------------------------------------

Initial solution 0.	

-----------------------------Solution composition------------------------------

	Elements           Molality       Moles

	Alkalinity        2.800e-03   2.800e-03
	Ca                1.400e-03   1.400e-03
	Cl                1.000e-04   1.000e-04
	K                 5.000e-05   5.000e-05
	Na                1.000e-04   1.000e-04

----------------------------Description of solution----------------------------

                                       pH  =   7.570    
                                       pe  =   8.000    
       Specific Conductance (uS/cm, 15 oC) = 218
                          Density (g/cm3)  =   0.99929
                        Activity of water  =   1.000
                           Ionic strength  =   4.253e-03
                       Mass of water (kg)  =   1.000e+00
                    Total carbon (mol/kg)  =   2.971e-03
                       Total CO2 (mol/kg)  =   2.971e-03
                      Temperature (deg C)  =  15.00
                  Electrical balance (eq)  =   5.000e-05
 Percent error, 100*(Cat-|An|)/(Cat+|An|)  =   0.87
                               Iterations  =   7
                                  Total H  = 1.110152e+02
                                  Total O  = 5.551495e+01

----------------------------Distribution of species----------------------------

                                               Log       Log       Log    mole V
   Species          Molality    Activity  Molality  Activity     Gamma   cm3/mol

   OH-             1.771e-07   1.651e-07    -6.752    -6.782    -0.030     -4.68
   H+              2.867e-08   2.692e-08    -7.543    -7.570    -0.027      0.00
   H2O             5.551e+01   9.999e-01     1.744    -0.000     0.000     18.03
C(4)          2.971e-03
   HCO3-           2.749e-03   2.570e-03    -2.561    -2.590    -0.029     23.83
   CO2             1.813e-04   1.814e-04    -3.742    -3.741     0.000     33.35
   CaHCO3+         3.021e-05   2.824e-05    -4.520    -4.549    -0.029      9.26
   CaCO3           5.294e-06   5.299e-06    -5.276    -5.276     0.000    -14.63
   CO3-2           4.665e-06   3.560e-06    -5.331    -5.449    -0.117     -5.20
   NaHCO3          4.262e-07   4.266e-07    -6.370    -6.370     0.000     27.30
   NaCO3-          3.919e-09   3.657e-09    -8.407    -8.437    -0.030     -3.40
Ca            1.400e-03
   Ca+2            1.364e-03   1.041e-03    -2.865    -2.983    -0.118    -17.78
   CaHCO3+         3.021e-05   2.824e-05    -4.520    -4.549    -0.029      9.26
   CaCO3           5.294e-06   5.299e-06    -5.276    -5.276     0.000    -14.63
   CaOH+           6.878e-09   6.418e-09    -8.163    -8.193    -0.030     (0)  
Cl            1.000e-04
   Cl-             1.000e-04   9.324e-05    -4.000    -4.030    -0.030     17.69
H(0)          1.136e-34
   H2              5.680e-35   5.685e-35   -34.246   -34.245     0.000     28.62
K             5.000e-05
   K+              5.000e-05   4.662e-05    -4.301    -4.331    -0.030      8.51
   KOH             6.000e-12   6.006e-12   -11.222   -11.221     0.000     (0)  
Na            1.000e-04
   Na+             9.957e-05   9.296e-05    -4.002    -4.032    -0.030     -1.73
   NaHCO3          4.262e-07   4.266e-07    -6.370    -6.370     0.000     27.30
   NaCO3-          3.919e-09   3.657e-09    -8.407    -8.437    -0.030     -3.40
   NaOH            1.533e-21   1.534e-21   -20.814   -20.814     0.000     (0)  
O(0)          1.180e-27
   O2              5.899e-28   5.905e-28   -27.229   -27.229     0.000     29.51

------------------------------Saturation indices-------------------------------

	Phase               SI   log IAP   log K(288 K,   1 atm)

	Aragonite        -0.15     -8.43   -8.28  CaCO3
	Calcite          -0.00     -8.43   -8.43  CaCO3
	CO2(g)           -2.40     -3.74   -1.34  CO2
	H2(g)           -31.17    -34.25   -3.07  H2
	H2O(g)           -1.77     -0.00    1.77  H2O
	Halite           -9.62     -8.06    1.56  NaCl
	O2(g)           -24.42    -27.23   -2.81  O2


------------------
End of simulation.
------------------

------------------------------------
Reading input data for simulation 2.
------------------------------------

	 SOLUTION 1-3 # Fill first 10 miles with just average infiltrating water; no X
	 units mol/kgw
	 pH 7.57
	 pe 8.0
	 temp 15
	 Ca 1.4000E-03
	 Alkalinity 2.8000E-03
	 Na 0.1e-3
	 K 0.05e-3
	 Cl 0.1e-3
	EQUILIBRIUM_PHASES 1-3
	 Calcite
	SAVE solution 1-3
	END
-------------------------------------------
Beginning of initial solution calculations.
-------------------------------------------

Initial solution 1.	

-----------------------------Solution composition------------------------------

	Elements           Molality       Moles

	Alkalinity        2.800e-03   2.800e-03
	Ca                1.400e-03   1.400e-03
	Cl                1.000e-04   1.000e-04
	K                 5.000e-05   5.000e-05
	Na                1.000e-04   1.000e-04

----------------------------Description of solution----------------------------

                                       pH  =   7.570    
                                       pe  =   8.000    
       Specific Conductance (uS/cm, 15 oC) = 218
                          Density (g/cm3)  =   0.99929
                        Activity of water  =   1.000
                           Ionic strength  =   4.253e-03
                       Mass of water (kg)  =   1.000e+00
                    Total carbon (mol/kg)  =   2.971e-03
                       Total CO2 (mol/kg)  =   2.971e-03
                      Temperature (deg C)  =  15.00
                  Electrical balance (eq)  =   5.000e-05
 Percent error, 100*(Cat-|An|)/(Cat+|An|)  =   0.87
                               Iterations  =   7
                                  Total H  = 1.110152e+02
                                  Total O  = 5.551495e+01

----------------------------Distribution of species----------------------------

                                               Log       Log       Log    mole V
   Species          Molality    Activity  Molality  Activity     Gamma   cm3/mol

   OH-             1.771e-07   1.651e-07    -6.752    -6.782    -0.030     -4.68
   H+              2.867e-08   2.692e-08    -7.543    -7.570    -0.027      0.00
   H2O             5.551e+01   9.999e-01     1.744    -0.000     0.000     18.03
C(4)          2.971e-03
   HCO3-           2.749e-03   2.570e-03    -2.561    -2.590    -0.029     23.83
   CO2             1.813e-04   1.814e-04    -3.742    -3.741     0.000     33.35
   CaHCO3+         3.021e-05   2.824e-05    -4.520    -4.549    -0.029      9.26
   CaCO3           5.294e-06   5.299e-06    -5.276    -5.276     0.000    -14.63
   CO3-2           4.665e-06   3.560e-06    -5.331    -5.449    -0.117     -5.20
   NaHCO3          4.262e-07   4.266e-07    -6.370    -6.370     0.000     27.30
   NaCO3-          3.919e-09   3.657e-09    -8.407    -8.437    -0.030     -3.40
Ca            1.400e-03
   Ca+2            1.364e-03   1.041e-03    -2.865    -2.983    -0.118    -17.78
   CaHCO3+         3.021e-05   2.824e-05    -4.520    -4.549    -0.029      9.26
   CaCO3           5.294e-06   5.299e-06    -5.276    -5.276     0.000    -14.63
   CaOH+           6.878e-09   6.418e-09    -8.163    -8.193    -0.030     (0)  
Cl            1.000e-04
   Cl-             1.000e-04   9.324e-05    -4.000    -4.030    -0.030     17.69
H(0)          1.136e-34
   H2              5.680e-35   5.685e-35   -34.246   -34.245     0.000     28.62
K             5.000e-05
   K+              5.000e-05   4.662e-05    -4.301    -4.331    -0.030      8.51
   KOH             6.000e-12   6.006e-12   -11.222   -11.221     0.000     (0)  
Na            1.000e-04
   Na+             9.957e-05   9.296e-05    -4.002    -4.032    -0.030     -1.73
   NaHCO3          4.262e-07   4.266e-07    -6.370    -6.370     0.000     27.30
   NaCO3-          3.919e-09   3.657e-09    -8.407    -8.437    -0.030     -3.40
   NaOH            1.533e-21   1.534e-21   -20.814   -20.814     0.000     (0)  
O(0)          1.180e-27
   O2              5.899e-28   5.905e-28   -27.229   -27.229     0.000     29.51

------------------------------Saturation indices-------------------------------

	Phase               SI   log IAP   log K(288 K,   1 atm)

	Aragonite        -0.15     -8.43   -8.28  CaCO3
	Calcite          -0.00     -8.43   -8.43  CaCO3
	CO2(g)           -2.40     -3.74   -1.34  CO2
	H2(g)           -31.17    -34.25   -3.07  H2
	H2O(g)           -1.77     -0.00    1.77  H2O
	Halite           -9.62     -8.06    1.56  NaCl
	O2(g)           -24.42    -27.23   -2.81  O2


-----------------------------------------
Beginning of batch-reaction calculations.
-----------------------------------------

Reaction step 1.

Using solution 1.	
Using pure phase assemblage 1.	

-------------------------------Phase assemblage--------------------------------

                                                      Moles in assemblage
Phase               SI  log IAP  log K(T, P)   Initial       Final       Delta

Calcite           0.00    -8.43     -8.43    1.000e+01   1.000e+01  -3.175e-07

-----------------------------Solution composition------------------------------

	Elements           Molality       Moles

	C                 2.971e-03   2.971e-03
	Ca                1.400e-03   1.400e-03
	Cl                1.000e-04   1.000e-04
	K                 5.000e-05   5.000e-05
	Na                1.000e-04   1.000e-04

----------------------------Description of solution----------------------------

                                       pH  =   7.571      Charge balance
                                       pe  =  -1.828      Adjusted to redox equilibrium
       Specific Conductance (uS/cm, 15 oC) = 218
                          Density (g/cm3)  =   0.99929
                        Activity of water  =   1.000
                           Ionic strength  =   4.254e-03
                       Mass of water (kg)  =   1.000e+00
                 Total alkalinity (eq/kg)  =   2.801e-03
                       Total CO2 (mol/kg)  =   2.971e-03
                      Temperature (deg C)  =  15.00
                  Electrical balance (eq)  =   5.000e-05
 Percent error, 100*(Cat-|An|)/(Cat+|An|)  =   0.87
                               Iterations  =  16
                                  Total H  = 1.110152e+02
                                  Total O  = 5.551495e+01

----------------------------Distribution of species----------------------------

                                               Log       Log       Log    mole V
   Species          Molality    Activity  Molality  Activity     Gamma   cm3/mol

   OH-             1.774e-07   1.654e-07    -6.751    -6.782    -0.030     -4.68
   H+              2.862e-08   2.687e-08    -7.543    -7.571    -0.027      0.00
   H2O             5.551e+01   9.999e-01     1.744    -0.000     0.000     18.03
C(-4)         1.233e-24
   CH4             1.233e-24   1.234e-24   -23.909   -23.909     0.000     32.22
C(4)          2.971e-03
   HCO3-           2.750e-03   2.570e-03    -2.561    -2.590    -0.029     23.83
   CO2             1.810e-04   1.811e-04    -3.742    -3.742     0.000     33.35
   CaHCO3+         3.022e-05   2.825e-05    -4.520    -4.549    -0.029      9.26
   CaCO3           5.306e-06   5.311e-06    -5.275    -5.275     0.000    -14.63
   CO3-2           4.674e-06   3.567e-06    -5.330    -5.448    -0.117     -5.20
   NaHCO3          4.263e-07   4.267e-07    -6.370    -6.370     0.000     27.30
   NaCO3-          3.927e-09   3.664e-09    -8.406    -8.436    -0.030     -3.40
Ca            1.400e-03
   Ca+2            1.365e-03   1.041e-03    -2.865    -2.983    -0.118    -17.78
   CaHCO3+         3.022e-05   2.825e-05    -4.520    -4.549    -0.029      9.26
   CaCO3           5.306e-06   5.311e-06    -5.275    -5.275     0.000    -14.63
   CaOH+           6.892e-09   6.431e-09    -8.162    -8.192    -0.030     (0)  
Cl            1.000e-04
   Cl-             1.000e-04   9.324e-05    -4.000    -4.030    -0.030     17.69
H(0)          5.123e-15
   H2              2.561e-15   2.564e-15   -14.592   -14.591     0.000     28.62
K             5.000e-05
   K+              5.000e-05   4.662e-05    -4.301    -4.331    -0.030      8.51
   KOH             6.011e-12   6.017e-12   -11.221   -11.221     0.000     (0)  
Na            1.000e-04
   Na+             9.957e-05   9.296e-05    -4.002    -4.032    -0.030     -1.73
   NaHCO3          4.263e-07   4.267e-07    -6.370    -6.370     0.000     27.30
   NaCO3-          3.927e-09   3.664e-09    -8.406    -8.436    -0.030     -3.40
   NaOH            1.536e-21   1.537e-21   -20.814   -20.813     0.000     (0)  
O(0)          0.000e+00
   O2              0.000e+00   0.000e+00   -66.538   -66.537     0.000     29.51

------------------------------Saturation indices-------------------------------

	Phase               SI   log IAP   log K(288 K,   1 atm)

	Aragonite        -0.15     -8.43   -8.28  CaCO3
	Calcite           0.00     -8.43   -8.43  CaCO3
	CH4(g)          -21.15    -23.91   -2.76  CH4
	CO2(g)           -2.40     -3.74   -1.34  CO2
	H2(g)           -11.52    -14.59   -3.07  H2
	H2O(g)           -1.77     -0.00    1.77  H2O
	Halite           -9.62     -8.06    1.56  NaCl
	O2(g)           -63.72    -66.54   -2.81  O2


------------------
End of simulation.
------------------

------------------------------------
Reading input data for simulation 3.
------------------------------------

	 SOLUTION 4-21 # Fill flowline with 18% seawater, CEC = 0.20 M
	 units mol/kgw
	 pH 6.80
	 pe 8.0
	 temp 15
	 dens 1.023
	 Ca 4.3790E-03
	 Mg 9.9162E-03
	 Na 87.381E-03
	 K 1.9044E-03
	 Cl 101.84E-03
	 Alkalinity 15.502E-03
	 S(6) 0.2670E-03
	EQUILIBRIUM_PHASES 4-21
	 Calcite
	SAVE solution 4-21
	END
-------------------------------------------
Beginning of initial solution calculations.
-------------------------------------------

Initial solution 4.	

-----------------------------Solution composition------------------------------

	Elements           Molality       Moles

	Alkalinity        1.550e-02   1.550e-02
	Ca                4.379e-03   4.379e-03
	Cl                1.018e-01   1.018e-01
	K                 1.904e-03   1.904e-03
	Mg                9.916e-03   9.916e-03
	Na                8.738e-02   8.738e-02
	S(6)              2.670e-04   2.670e-04

----------------------------Description of solution----------------------------

                                       pH  =   6.800    
                                       pe  =   8.000    
       Specific Conductance (uS/cm, 15 oC) = 9286
                          Density (g/cm3)  =   1.00439
                        Activity of water  =   0.996
                           Ionic strength  =   1.294e-01
                       Mass of water (kg)  =   1.000e+00
                    Total carbon (mol/kg)  =   1.972e-02
                       Total CO2 (mol/kg)  =   1.972e-02
                      Temperature (deg C)  =  15.00
                  Electrical balance (eq)  =  -2.000e-07
 Percent error, 100*(Cat-|An|)/(Cat+|An|)  =  -0.00
                               Iterations  =   8
                                  Total H  = 1.110279e+02
                                  Total O  = 5.556220e+01

----------------------------Distribution of species----------------------------

                                               Log       Log       Log    mole V
   Species          Molality    Activity  Molality  Activity     Gamma   cm3/mol

   H+              1.939e-07   1.585e-07    -6.712    -6.800    -0.088      0.00
   OH-             3.749e-08   2.793e-08    -7.426    -7.554    -0.128     -4.22
   H2O             5.551e+01   9.962e-01     1.744    -0.002     0.000     18.03
C(4)          1.972e-02
   HCO3-           1.348e-02   1.046e-02    -1.870    -1.981    -0.110     24.36
   CO2             4.236e-03   4.364e-03    -2.373    -2.360     0.013     33.35
   NaHCO3          1.204e-03   1.240e-03    -2.919    -2.906     0.013     27.30
   MgHCO3+         5.534e-04   4.264e-04    -3.257    -3.370    -0.113      5.42
   CaHCO3+         2.174e-04   1.686e-04    -3.663    -3.773    -0.110      9.51
   MgCO3           7.044e-06   7.257e-06    -5.152    -5.139     0.013    -17.08
   CO3-2           6.800e-06   2.461e-06    -5.167    -5.609    -0.441     -4.06
   CaCO3           5.215e-06   5.373e-06    -5.283    -5.270     0.013    -14.63
   NaCO3-          2.343e-06   1.806e-06    -5.630    -5.743    -0.113     -2.52
Ca            4.379e-03
   Ca+2            4.141e-03   1.527e-03    -2.383    -2.816    -0.433    -17.35
   CaHCO3+         2.174e-04   1.686e-04    -3.663    -3.773    -0.110      9.51
   CaSO4           1.562e-05   1.609e-05    -4.806    -4.793     0.013      7.06
   CaCO3           5.215e-06   5.373e-06    -5.283    -5.270     0.013    -14.63
   CaOH+           2.068e-09   1.593e-09    -8.685    -8.798    -0.113     (0)  
   CaHSO4+         1.908e-11   1.470e-11   -10.719   -10.833    -0.113     (0)  
Cl            1.018e-01
   Cl-             1.018e-01   7.621e-02    -0.992    -1.118    -0.126     17.95
H(0)          3.827e-33
   H2              1.913e-33   1.971e-33   -32.718   -32.705     0.013     28.62
K             1.904e-03
   K+              1.904e-03   1.425e-03    -2.720    -2.846    -0.126      8.80
   KSO4-           6.945e-07   5.351e-07    -6.158    -6.272    -0.113     (0)  
   KOH             3.014e-11   3.105e-11   -10.521   -10.508     0.013     (0)  
Mg            9.916e-03
   Mg+2            9.316e-03   3.604e-03    -2.031    -2.443    -0.412    -20.70
   MgHCO3+         5.534e-04   4.264e-04    -3.257    -3.370    -0.113      5.42
   MgSO4           4.022e-05   4.144e-05    -4.396    -4.383     0.013      5.40
   MgCO3           7.044e-06   7.257e-06    -5.152    -5.139     0.013    -17.08
   MgOH+           4.193e-08   3.231e-08    -7.377    -7.491    -0.113     (0)  
Na            8.738e-02
   Na+             8.615e-02   6.641e-02    -1.065    -1.178    -0.113     -1.51
   NaHCO3          1.204e-03   1.240e-03    -2.919    -2.906     0.013     27.30
   NaSO4-          2.590e-05   1.996e-05    -4.587    -4.700    -0.113     28.53
   NaCO3-          2.343e-06   1.806e-06    -5.630    -5.743    -0.113     -2.52
   NaOH            1.800e-19   1.855e-19   -18.745   -18.732     0.013     (0)  
O(0)          9.464e-31
   O2              4.732e-31   4.875e-31   -30.325   -30.312     0.013     29.51
S(6)          2.670e-04
   SO4-2           1.846e-04   6.403e-05    -3.734    -4.194    -0.460     12.02
   MgSO4           4.022e-05   4.144e-05    -4.396    -4.383     0.013      5.40
   NaSO4-          2.590e-05   1.996e-05    -4.587    -4.700    -0.113     28.53
   CaSO4           1.562e-05   1.609e-05    -4.806    -4.793     0.013      7.06
   KSO4-           6.945e-07   5.351e-07    -6.158    -6.272    -0.113     (0)  
   HSO4-           1.039e-09   8.006e-10    -8.983    -9.097    -0.113     34.63
   CaHSO4+         1.908e-11   1.470e-11   -10.719   -10.833    -0.113     (0)  

------------------------------Saturation indices-------------------------------

	Phase               SI   log IAP   log K(288 K,   1 atm)

	Anhydrite        -2.88     -7.01   -4.13  CaSO4
	Aragonite        -0.15     -8.43   -8.28  CaCO3
	Calcite           0.01     -8.43   -8.43  CaCO3
	CO2(g)           -1.02     -2.36   -1.34  CO2
	Dolomite          0.37    -16.48  -16.85  CaMg(CO3)2
	Gypsum           -2.43     -7.01   -4.58  CaSO4:2H2O
	H2(g)           -29.63    -32.71   -3.07  H2
	H2O(g)           -1.77     -0.00    1.77  H2O
	Halite           -3.85     -2.30    1.56  NaCl
	O2(g)           -27.50    -30.31   -2.81  O2


-----------------------------------------
Beginning of batch-reaction calculations.
-----------------------------------------

Reaction step 1.

Using solution 4.	
Using pure phase assemblage 4.	

-------------------------------Phase assemblage--------------------------------

                                                      Moles in assemblage
Phase               SI  log IAP  log K(T, P)   Initial       Final       Delta

Calcite           0.00    -8.43     -8.43    1.000e+01   1.000e+01   1.672e-05

-----------------------------Solution composition------------------------------

	Elements           Molality       Moles

	C                 1.970e-02   1.970e-02
	Ca                4.362e-03   4.362e-03
	Cl                1.018e-01   1.018e-01
	K                 1.904e-03   1.904e-03
	Mg                9.916e-03   9.916e-03
	Na                8.738e-02   8.738e-02
	S                 2.670e-04   2.670e-04

----------------------------Description of solution----------------------------

                                       pH  =   6.797      Charge balance
                                       pe  =  -1.516      Adjusted to redox equilibrium
       Specific Conductance (uS/cm, 15 oC) = 9285
                          Density (g/cm3)  =   1.00439
                        Activity of water  =   0.996
                           Ionic strength  =   1.293e-01
                       Mass of water (kg)  =   1.000e+00
                 Total alkalinity (eq/kg)  =   1.547e-02
                       Total CO2 (mol/kg)  =   1.970e-02
                      Temperature (deg C)  =  15.00
                  Electrical balance (eq)  =  -2.000e-07
 Percent error, 100*(Cat-|An|)/(Cat+|An|)  =  -0.00
                               Iterations  =  22
                                  Total H  = 1.110279e+02
                                  Total O  = 5.556215e+01

----------------------------Distribution of species----------------------------

                                               Log       Log       Log    mole V
   Species          Molality    Activity  Molality  Activity     Gamma   cm3/mol

   H+              1.951e-07   1.594e-07    -6.710    -6.797    -0.088      0.00
   OH-             3.726e-08   2.776e-08    -7.429    -7.557    -0.128     -4.22
   H2O             5.551e+01   9.962e-01     1.744    -0.002     0.000     18.03
C(-4)         1.436e-19
   CH4             1.436e-19   1.480e-19   -18.843   -18.830     0.013     32.22
C(4)          1.970e-02
   HCO3-           1.346e-02   1.044e-02    -1.871    -1.981    -0.110     24.36
   CO2             4.253e-03   4.381e-03    -2.371    -2.358     0.013     33.35
   NaHCO3          1.201e-03   1.238e-03    -2.920    -2.907     0.013     27.30
   MgHCO3+         5.523e-04   4.256e-04    -3.258    -3.371    -0.113      5.42
   CaHCO3+         2.161e-04   1.676e-04    -3.665    -3.776    -0.110      9.51
   MgCO3           6.989e-06   7.200e-06    -5.156    -5.143     0.013    -17.08
   CO3-2           6.745e-06   2.441e-06    -5.171    -5.612    -0.441     -4.06
   CaCO3           5.155e-06   5.311e-06    -5.288    -5.275     0.013    -14.63
   NaCO3-          2.325e-06   1.791e-06    -5.634    -5.747    -0.113     -2.52
Ca            4.362e-03
   Ca+2            4.125e-03   1.522e-03    -2.385    -2.818    -0.433    -17.35
   CaHCO3+         2.161e-04   1.676e-04    -3.665    -3.776    -0.110      9.51
   CaSO4           1.556e-05   1.604e-05    -4.808    -4.795     0.013      7.06
   CaCO3           5.155e-06   5.311e-06    -5.288    -5.275     0.013    -14.63
   CaOH+           2.048e-09   1.578e-09    -8.689    -8.802    -0.113     (0)  
   CaHSO4+         1.913e-11   1.474e-11   -10.718   -10.832    -0.113     (0)  
Cl            1.018e-01
   Cl-             1.018e-01   7.621e-02    -0.992    -1.118    -0.126     17.95
H(0)          4.169e-14
   H2              2.085e-14   2.148e-14   -13.681   -13.668     0.013     28.62
K             1.904e-03
   K+              1.904e-03   1.425e-03    -2.720    -2.846    -0.126      8.80
   KSO4-           6.947e-07   5.352e-07    -6.158    -6.271    -0.113     (0)  
   KOH             2.996e-11   3.087e-11   -10.523   -10.511     0.013     (0)  
Mg            9.916e-03
   Mg+2            9.317e-03   3.604e-03    -2.031    -2.443    -0.412    -20.70
   MgHCO3+         5.523e-04   4.256e-04    -3.258    -3.371    -0.113      5.42
   MgSO4           4.024e-05   4.146e-05    -4.395    -4.382     0.013      5.40
   MgCO3           6.989e-06   7.200e-06    -5.156    -5.143     0.013    -17.08
   MgOH+           4.169e-08   3.212e-08    -7.380    -7.493    -0.113     (0)  
Na            8.738e-02
   Na+             8.615e-02   6.641e-02    -1.065    -1.178    -0.113     -1.51
   NaHCO3          1.201e-03   1.238e-03    -2.920    -2.907     0.013     27.30
   NaSO4-          2.591e-05   1.996e-05    -4.587    -4.700    -0.113     28.53
   NaCO3-          2.325e-06   1.791e-06    -5.634    -5.747    -0.113     -2.52
   NaOH            1.790e-19   1.844e-19   -18.747   -18.734     0.013     (0)  
O(0)          0.000e+00
   O2              0.000e+00   0.000e+00   -68.399   -68.386     0.013     29.51
S(-2)         2.836e-18
   H2S             1.655e-18   1.705e-18   -17.781   -17.768     0.013     37.12
   HS-             1.181e-18   8.797e-19   -17.928   -18.056    -0.128     20.30
   S-2             9.343e-25   3.281e-25   -24.030   -24.484    -0.455     (0)  
S(6)          2.670e-04
   SO4-2           1.846e-04   6.405e-05    -3.734    -4.193    -0.460     12.02
   MgSO4           4.024e-05   4.146e-05    -4.395    -4.382     0.013      5.40
   NaSO4-          2.591e-05   1.996e-05    -4.587    -4.700    -0.113     28.53
   CaSO4           1.556e-05   1.604e-05    -4.808    -4.795     0.013      7.06
   KSO4-           6.947e-07   5.352e-07    -6.158    -6.271    -0.113     (0)  
   HSO4-           1.046e-09   8.056e-10    -8.981    -9.094    -0.113     34.63
   CaHSO4+         1.913e-11   1.474e-11   -10.718   -10.832    -0.113     (0)  

------------------------------Saturation indices-------------------------------

	Phase               SI   log IAP   log K(288 K,   1 atm)

	Anhydrite        -2.88     -7.01   -4.13  CaSO4
	Aragonite        -0.15     -8.43   -8.28  CaCO3
	Calcite           0.00     -8.43   -8.43  CaCO3
	CH4(g)          -16.07    -18.83   -2.76  CH4
	CO2(g)           -1.02     -2.36   -1.34  CO2
	Dolomite          0.36    -16.49  -16.85  CaMg(CO3)2
	Gypsum           -2.43     -7.01   -4.58  CaSO4:2H2O
	H2(g)           -10.60    -13.67   -3.07  H2
	H2O(g)           -1.77     -0.00    1.77  H2O
	H2S(g)          -16.83    -24.85   -8.02  H2S
	Halite           -3.85     -2.30    1.56  NaCl
	O2(g)           -65.57    -68.39   -2.81  O2
	Sulfur          -12.33     -7.21    5.12  S


------------------
End of simulation.
------------------

------------------------------------
Reading input data for simulation 4.
------------------------------------

	EXCHANGE 4-21
	 X 0.2
	 equilibrate 4
	END 
-------------------------------------------------------
Beginning of initial exchange-composition calculations.
-------------------------------------------------------

Exchange 4.	

X                2.000e-01 mol

	                               Equiv-    Equivalent      Log 
	Species             Moles      alents      Fraction     Gamma

	HX                4.529e-02   4.529e-02   2.265e-01    -2.718
	NaX               3.773e-02   3.773e-02   1.886e-01    -0.519
	MgX2              2.836e-02   5.672e-02   2.836e-01    -0.412
	CaX2              2.600e-02   5.199e-02   2.600e-01    -0.433
	KX                8.267e-03   8.267e-03   4.134e-02    -0.126

------------------
End of simulation.
------------------

------------------------------------
Reading input data for simulation 5.
------------------------------------

	MIX	13	
		11	0.9	
		13	0.1
	MIX	14	
		13	0.8	
		14	0.2
	MIX	15	
		14	0.7	
		15	0.3
	MIX	16	
		15	0.6	
		16	0.4
	MIX	17	
		16	0.5	
		17	0.5
	MIX	18	
		17	0.4	
		18	0.6
	MIX	19	
		18	0.3	
		19	0.7
	MIX	20	
		19	0.2	
		20	0.8
	MIX	21	
		20	0.1	
		21	0.9
	END
-----------------------------------------
Beginning of batch-reaction calculations.
-----------------------------------------

Reaction step 1.

Using mix 13.	

Mixture 13.	

	  9.000e-01 Solution 11	Solution after simulation 3.                           
	  1.000e-01 Solution 13	Solution after simulation 3.                           

-----------------------------Solution composition------------------------------

	Elements           Molality       Moles

	C                 1.970e-02   1.970e-02
	Ca                4.362e-03   4.362e-03
	Cl                1.018e-01   1.018e-01
	K                 1.904e-03   1.904e-03
	Mg                9.916e-03   9.916e-03
	Na                8.738e-02   8.738e-02
	S                 2.670e-04   2.670e-04

----------------------------Description of solution----------------------------

                                       pH  =   6.797      Charge balance
                                       pe  =  -1.566      Adjusted to redox equilibrium
       Specific Conductance (uS/cm, 15 oC) = 9285
                          Density (g/cm3)  =   1.00439
                        Activity of water  =   0.996
                           Ionic strength  =   1.293e-01
                       Mass of water (kg)  =   1.000e+00
                 Total alkalinity (eq/kg)  =   1.547e-02
                       Total CO2 (mol/kg)  =   1.970e-02
                      Temperature (deg C)  =  15.00
                  Electrical balance (eq)  =  -2.000e-07
 Percent error, 100*(Cat-|An|)/(Cat+|An|)  =  -0.00
                               Iterations  =   5
                                  Total H  = 1.110279e+02
                                  Total O  = 5.556215e+01

----------------------------Distribution of species----------------------------

                                               Log       Log       Log    mole V
   Species          Molality    Activity  Molality  Activity     Gamma   cm3/mol

   H+              1.951e-07   1.594e-07    -6.710    -6.797    -0.088      0.00
   OH-             3.726e-08   2.776e-08    -7.429    -7.557    -0.128     -4.22
   H2O             5.551e+01   9.962e-01     1.744    -0.002     0.000     18.03
C(-4)         3.613e-19
   CH4             3.613e-19   3.722e-19   -18.442   -18.429     0.013     32.22
C(4)          1.970e-02
   HCO3-           1.346e-02   1.044e-02    -1.871    -1.981    -0.110     24.36
   CO2             4.253e-03   4.381e-03    -2.371    -2.358     0.013     33.35
   NaHCO3          1.201e-03   1.238e-03    -2.920    -2.907     0.013     27.30
   MgHCO3+         5.523e-04   4.256e-04    -3.258    -3.371    -0.113      5.42
   CaHCO3+         2.161e-04   1.676e-04    -3.665    -3.776    -0.110      9.51
   MgCO3           6.989e-06   7.200e-06    -5.156    -5.143     0.013    -17.08
   CO3-2           6.745e-06   2.441e-06    -5.171    -5.612    -0.441     -4.06
   CaCO3           5.155e-06   5.311e-06    -5.288    -5.275     0.013    -14.63
   NaCO3-          2.325e-06   1.791e-06    -5.634    -5.747    -0.113     -2.52
Ca            4.362e-03
   Ca+2            4.125e-03   1.522e-03    -2.385    -2.818    -0.433    -17.35
   CaHCO3+         2.161e-04   1.676e-04    -3.665    -3.776    -0.110      9.51
   CaSO4           1.556e-05   1.604e-05    -4.808    -4.795     0.013      7.06
   CaCO3           5.155e-06   5.311e-06    -5.288    -5.275     0.013    -14.63
   CaOH+           2.048e-09   1.578e-09    -8.689    -8.802    -0.113     (0)  
   CaHSO4+         1.913e-11   1.474e-11   -10.718   -10.832    -0.113     (0)  
Cl            1.018e-01
   Cl-             1.018e-01   7.621e-02    -0.992    -1.118    -0.126     17.95
H(0)          5.251e-14
   H2              2.625e-14   2.705e-14   -13.581   -13.568     0.013     28.62
K             1.904e-03
   K+              1.904e-03   1.425e-03    -2.720    -2.846    -0.126      8.80
   KSO4-           6.947e-07   5.352e-07    -6.158    -6.271    -0.113     (0)  
   KOH             2.996e-11   3.087e-11   -10.523   -10.511     0.013     (0)  
Mg            9.916e-03
   Mg+2            9.317e-03   3.604e-03    -2.031    -2.443    -0.412    -20.70
   MgHCO3+         5.523e-04   4.256e-04    -3.258    -3.371    -0.113      5.42
   MgSO4           4.024e-05   4.146e-05    -4.395    -4.382     0.013      5.40
   MgCO3           6.989e-06   7.200e-06    -5.156    -5.143     0.013    -17.08
   MgOH+           4.169e-08   3.212e-08    -7.380    -7.493    -0.113     (0)  
Na            8.738e-02
   Na+             8.615e-02   6.641e-02    -1.065    -1.178    -0.113     -1.51
   NaHCO3          1.201e-03   1.238e-03    -2.920    -2.907     0.013     27.30
   NaSO4-          2.591e-05   1.996e-05    -4.587    -4.700    -0.113     28.53
   NaCO3-          2.325e-06   1.791e-06    -5.634    -5.747    -0.113     -2.52
   NaOH            1.790e-19   1.844e-19   -18.747   -18.734     0.013     (0)  
O(0)          0.000e+00
   O2              0.000e+00   0.000e+00   -68.600   -68.587     0.013     29.51
S(-2)         7.133e-18
   H2S             4.163e-18   4.289e-18   -17.381   -17.368     0.013     37.12
   HS-             2.970e-18   2.213e-18   -17.527   -17.655    -0.128     20.30
   S-2             2.350e-24   8.253e-25   -23.629   -24.083    -0.455     (0)  
S(6)          2.670e-04
   SO4-2           1.846e-04   6.405e-05    -3.734    -4.193    -0.460     12.02
   MgSO4           4.024e-05   4.146e-05    -4.395    -4.382     0.013      5.40
   NaSO4-          2.591e-05   1.996e-05    -4.587    -4.700    -0.113     28.53
   CaSO4           1.556e-05   1.604e-05    -4.808    -4.795     0.013      7.06
   KSO4-           6.947e-07   5.352e-07    -6.158    -6.271    -0.113     (0)  
   HSO4-           1.046e-09   8.056e-10    -8.981    -9.094    -0.113     34.63
   CaHSO4+         1.913e-11   1.474e-11   -10.718   -10.832    -0.113     (0)  

------------------------------Saturation indices-------------------------------

	Phase               SI   log IAP   log K(288 K,   1 atm)

	Anhydrite        -2.88     -7.01   -4.13  CaSO4
	Aragonite        -0.15     -8.43   -8.28  CaCO3
	Calcite           0.00     -8.43   -8.43  CaCO3
	CH4(g)          -15.67    -18.43   -2.76  CH4
	CO2(g)           -1.02     -2.36   -1.34  CO2
	Dolomite          0.36    -16.49  -16.85  CaMg(CO3)2
	Gypsum           -2.43     -7.01   -4.58  CaSO4:2H2O
	H2(g)           -10.50    -13.57   -3.07  H2
	H2O(g)           -1.77     -0.00    1.77  H2O
	H2S(g)          -16.43    -24.45   -8.02  H2S
	Halite           -3.85     -2.30    1.56  NaCl
	O2(g)           -65.77    -68.59   -2.81  O2
	Sulfur          -12.03     -6.91    5.12  S


------------------
End of simulation.
------------------

------------------------------------
Reading input data for simulation 6.
------------------------------------

	PRINT
	 reset false
WARNING: Cell-lengths were read for 1 cells. Last value is used till cell 11.
WARNING: Dispersivities were read for 1 cells. Last value is used till cell 11.
WARNING: Maximum iterations exceeded, 100

WARNING: Numerical method failed with this set of convergence parameters.

WARNING: Trying smaller step size, pe step size 10, 5 ... 

WARNING: Maximum iterations exceeded, 100

WARNING: Numerical method failed with this set of convergence parameters.

WARNING: Trying smaller step size, pe step size 10, 5 ... 

WARNING: Maximum iterations exceeded, 100

WARNING: Numerical method failed with this set of convergence parameters.

WARNING: Trying smaller step size, pe step size 10, 5 ... 

WARNING: Maximum iterations exceeded, 100

WARNING: Numerical method failed with this set of convergence parameters.

WARNING: Trying smaller step size, pe step size 10, 5 ... 

WARNING: Maximum iterations exceeded, 100

WARNING: Numerical method failed with this set of convergence parameters.

WARNING: Trying smaller step size, pe step size 10, 5 ... 

WARNING: Maximum iterations exceeded, 100

WARNING: Numerical method failed with this set of convergence parameters.

WARNING: Trying smaller step size, pe step size 10, 5 ... 

WARNING: Maximum iterations exceeded, 100

WARNING: Numerical method failed with this set of convergence parameters.

WARNING: Trying smaller step size, pe step size 10, 5 ... 

WARNING: Maximum iterations exceeded, 100

WARNING: Numerical method failed with this set of convergence parameters.

WARNING: Trying smaller step size, pe step size 10, 5 ... 

WARNING: Maximum iterations exceeded, 100

WARNING: Numerical method failed with this set of convergence parameters.

WARNING: Trying smaller step size, pe step size 10, 5 ... 

WARNING: Maximum iterations exceeded, 100

WARNING: Numerical method failed with this set of convergence parameters.

WARNING: Trying smaller step size, pe step size 10, 5 ... 

WARNING: Maximum iterations exceeded, 100

WARNING: Numerical method failed with this set of convergence parameters.

WARNING: Trying smaller step size, pe step size 10, 5 ... 

WARNING: Maximum iterations exceeded, 100

WARNING: Numerical method failed with this set of convergence parameters.

WARNING: Trying smaller step size, pe step size 10, 5 ... 

WARNING: Maximum iterations exceeded, 100

WARNING: Numerical method failed with this set of convergence parameters.

WARNING: Trying smaller step size, pe step size 10, 5 ... 

WARNING: Maximum iterations exceeded, 100

WARNING: Numerical method failed with this set of convergence parameters.

WARNING: Trying smaller step size, pe step size 10, 5 ... 

WARNING: Maximum iterations exceeded, 100

WARNING: Numerical method failed with this set of convergence parameters.

WARNING: Trying smaller step size, pe step size 10, 5 ... 

WARNING: Maximum iterations exceeded, 100

WARNING: Numerical method failed with this set of convergence parameters.

WARNING: Trying smaller step size, pe step size 10, 5 ... 

WARNING: Maximum iterations exceeded, 100

WARNING: Numerical method failed with this set of convergence parameters.

WARNING: Trying smaller step size, pe step size 10, 5 ... 

WARNING: Maximum iterations exceeded, 100

WARNING: Numerical method failed with this set of convergence parameters.

WARNING: Trying smaller step size, pe step size 10, 5 ... 

WARNING: Maximum iterations exceeded, 100

WARNING: Numerical method failed with this set of convergence parameters.

WARNING: Trying smaller step size, pe step size 10, 5 ... 

WARNING: Maximum iterations exceeded, 100

WARNING: Numerical method failed with this set of convergence parameters.

WARNING: Trying smaller step size, pe step size 10, 5 ... 

WARNING: Maximum iterations exceeded, 100

WARNING: Numerical method failed with this set of convergence parameters.

WARNING: Trying smaller step size, pe step size 10, 5 ... 

WARNING: Maximum iterations exceeded, 100

WARNING: Numerical method failed with this set of convergence parameters.

WARNING: Trying smaller step size, pe step size 10, 5 ... 

WARNING: Maximum iterations exceeded, 100

WARNING: Numerical method failed with this set of convergence parameters.

WARNING: Trying smaller step size, pe step size 10, 5 ... 

WARNING: Maximum iterations exceeded, 100

WARNING: Numerical method failed with this set of convergence parameters.

WARNING: Trying smaller step size, pe step size 10, 5 ... 

WARNING: Maximum iterations exceeded, 100

WARNING: Numerical method failed with this set of convergence parameters.

WARNING: Trying smaller step size, pe step size 10, 5 ... 

WARNING: Maximum iterations exceeded, 100

WARNING: Numerical method failed with this set of convergence parameters.

WARNING: Trying smaller step size, pe step size 10, 5 ... 

WARNING: Maximum iterations exceeded, 100

WARNING: Numerical method failed with this set of convergence parameters.

WARNING: Trying smaller step size, pe step size 10, 5 ... 

WARNING: Maximum iterations exceeded, 100

WARNING: Numerical method failed with this set of convergence parameters.

WARNING: Trying smaller step size, pe step size 10, 5 ... 

WARNING: Maximum iterations exceeded, 100

WARNING: Numerical method failed with this set of convergence parameters.

WARNING: Trying smaller step size, pe step size 10, 5 ... 

WARNING: Maximum iterations exceeded, 100

WARNING: Numerical method failed with this set of convergence parameters.

WARNING: Trying smaller step size, pe step size 10, 5 ... 

WARNING: Maximum iterations exceeded, 100

WARNING: Numerical method failed with this set of convergence parameters.

WARNING: Trying smaller step size, pe step size 10, 5 ... 

WARNING: Maximum iterations exceeded, 100

WARNING: Numerical method failed with this set of convergence parameters.

WARNING: Trying smaller step size, pe step size 10, 5 ... 

WARNING: Maximum iterations exceeded, 100

WARNING: Numerical method failed with this set of convergence parameters.

-------------------------------
End of Run after 53.36 Seconds.
-------------------------------

