WARNING: Database file from DATABASE keyword is used; command line argument ignored.
   Input file: aquia
  Output file: aquia.out
Database file: ../database/phreeqc.dat

------------------
Reading data base.
------------------

	SOLUTION_MASTER_SPECIES
	SOLUTION_SPECIES
	PHASES
	EXCHANGE_MASTER_SPECIES
	EXCHANGE_SPECIES
	SURFACE_MASTER_SPECIES
	SURFACE_SPECIES
	RATES
	END
------------------------------------
Reading input data for simulation 1.
------------------------------------

	DATABASE ../database/phreeqc.dat
	EXCHANGE_SPECIES
	  H+ + X- = HX
	 log_k 3.0
	 gamma 9.0 0.0 3.4
	  Na+ + X- = NaX
	 log_k -0.5
	 gamma 4.0 0.075 0.5
	  K+ + X- = KX
	 log_k 0.902
	 gamma 3.5 0.015
	  Ca+2 + 2X- = CaX2
	 log_k 0.93
	 gamma 5.0 0.165
	  Mg+2 + 2X- = MgX2
	 log_k 0.614
	 gamma 5.5 0.20
	SOLUTION 0
	 units mol/kgw
	 pH 7.57
	 pe 8.0
	 temp 15
	 Ca 1.4000E-03
	 Alkalinity 2.8000E-03
	 Na 0.1e-3
	 K 0.05e-3
	 Cl 0.1e-3
	END
-------------------------------------------
Beginning of initial solution calculations.
-------------------------------------------

Initial solution 0.	

-----------------------------Solution composition------------------------------

	Elements           Molality       Moles

	Alkalinity        2.800e-03   2.800e-03
	Ca                1.400e-03   1.400e-03
	Cl                1.000e-04   1.000e-04
	K                 5.000e-05   5.000e-05
	Na                1.000e-04   1.000e-04

----------------------------Description of solution----------------------------

                                       pH  =   7.570    
                                       pe  =   8.000    
       Specific Conductance (uS/cm, 15 oC) = 218
                          Density (g/cm3)  =   0.99929
                               Volume (L)  =   1.00110
                        Activity of water  =   1.000
                           Ionic strength  =   4.253e-03
                       Mass of water (kg)  =   1.000e+00
                    Total carbon (mol/kg)  =   2.971e-03
                       Total CO2 (mol/kg)  =   2.971e-03
                      Temperature (deg C)  =  15.00
                  Electrical balance (eq)  =   5.000e-05
 Percent error, 100*(Cat-|An|)/(Cat+|An|)  =   0.87
                               Iterations  =   7
                                  Total H  = 1.110152e+02
                                  Total O  = 5.551495e+01

----------------------------Distribution of species----------------------------

                                               Log       Log       Log    mole V
   Species          Molality    Activity  Molality  Activity     Gamma   cm3/mol

   OH-             1.808e-07   1.685e-07    -6.743    -6.773    -0.030     -4.59
   H+              2.867e-08   2.692e-08    -7.543    -7.570    -0.027      0.00
   H2O             5.551e+01   9.999e-01     1.744    -0.000     0.000     18.03
C(4)          2.971e-03
   HCO3-           2.750e-03   2.570e-03    -2.561    -2.590    -0.029     23.80
   CO2             1.813e-04   1.814e-04    -3.742    -3.741     0.000     31.86
   CaHCO3+         3.019e-05   2.824e-05    -4.520    -4.549    -0.029      9.25
   CaCO3           5.294e-06   5.300e-06    -5.276    -5.276     0.000    -14.63
   CO3-2           4.665e-06   3.560e-06    -5.331    -5.449    -0.117     -6.44
   NaHCO3          1.427e-07   1.429e-07    -6.845    -6.845     0.000      2.13
   NaCO3-          3.931e-09   3.668e-09    -8.405    -8.436    -0.030     -1.69
Ca            1.400e-03
   Ca+2            1.365e-03   1.041e-03    -2.865    -2.983    -0.118    -18.20
   CaHCO3+         3.019e-05   2.824e-05    -4.520    -4.549    -0.029      9.25
   CaCO3           5.294e-06   5.300e-06    -5.276    -5.276     0.000    -14.63
   CaOH+           6.878e-09   6.418e-09    -8.163    -8.193    -0.030     (0)  
Cl            1.000e-04
   Cl-             1.000e-04   9.326e-05    -4.000    -4.030    -0.030     17.71
H(0)          1.136e-34
   H2              5.680e-35   5.685e-35   -34.246   -34.245     0.000     28.62
K             5.000e-05
   K+              5.000e-05   4.662e-05    -4.301    -4.331    -0.030      8.66
Na            1.000e-04
   Na+             9.985e-05   9.324e-05    -4.001    -4.030    -0.030     -1.96
   NaHCO3          1.427e-07   1.429e-07    -6.845    -6.845     0.000      2.13
   NaCO3-          3.931e-09   3.668e-09    -8.405    -8.436    -0.030     -1.69
   NaOH            1.570e-21   1.571e-21   -20.804   -20.804     0.000     (0)  
O(0)          1.180e-27
   O2              5.899e-28   5.905e-28   -27.229   -27.229     0.000     29.51

------------------------------Saturation indices-------------------------------

	Phase               SI   log IAP   log K(288 K,   1 atm)

	Aragonite        -0.15     -8.43   -8.28  CaCO3
	Calcite          -0.00     -8.43   -8.43  CaCO3
	CO2(g)           -2.40     -3.74   -1.34  CO2
	H2(g)           -31.17    -34.25   -3.07  H2
	H2O(g)           -1.77     -0.00    1.77  H2O
	Halite           -9.62     -8.06    1.56  NaCl
	O2(g)           -24.42    -27.23   -2.81  O2
	Sylvite          -9.15     -8.36    0.79  KCl


------------------
End of simulation.
------------------

------------------------------------
Reading input data for simulation 2.
------------------------------------

	 SOLUTION 1-3 # Fill first 10 miles with just average infiltrating water; no X
	 units mol/kgw
	 pH 7.57
	 pe 8.0
	 temp 15
	 Ca 1.4000E-03
	 Alkalinity 2.8000E-03
	 Na 0.1e-3
	 K 0.05e-3
	 Cl 0.1e-3
	EQUILIBRIUM_PHASES 1-3
	 Calcite
	SAVE solution 1-3
	END
-------------------------------------------
Beginning of initial solution calculations.
-------------------------------------------

Initial solution 1.	

-----------------------------Solution composition------------------------------

	Elements           Molality       Moles

	Alkalinity        2.800e-03   2.800e-03
	Ca                1.400e-03   1.400e-03
	Cl                1.000e-04   1.000e-04
	K                 5.000e-05   5.000e-05
	Na                1.000e-04   1.000e-04

----------------------------Description of solution----------------------------

                                       pH  =   7.570    
                                       pe  =   8.000    
       Specific Conductance (uS/cm, 15 oC) = 218
                          Density (g/cm3)  =   0.99929
                               Volume (L)  =   1.00110
                        Activity of water  =   1.000
                           Ionic strength  =   4.253e-03
                       Mass of water (kg)  =   1.000e+00
                    Total carbon (mol/kg)  =   2.971e-03
                       Total CO2 (mol/kg)  =   2.971e-03
                      Temperature (deg C)  =  15.00
                  Electrical balance (eq)  =   5.000e-05
 Percent error, 100*(Cat-|An|)/(Cat+|An|)  =   0.87
                               Iterations  =   7
                                  Total H  = 1.110152e+02
                                  Total O  = 5.551495e+01

----------------------------Distribution of species----------------------------

                                               Log       Log       Log    mole V
   Species          Molality    Activity  Molality  Activity     Gamma   cm3/mol

   OH-             1.808e-07   1.685e-07    -6.743    -6.773    -0.030     -4.59
   H+              2.867e-08   2.692e-08    -7.543    -7.570    -0.027      0.00
   H2O             5.551e+01   9.999e-01     1.744    -0.000     0.000     18.03
C(4)          2.971e-03
   HCO3-           2.750e-03   2.570e-03    -2.561    -2.590    -0.029     23.80
   CO2             1.813e-04   1.814e-04    -3.742    -3.741     0.000     31.86
   CaHCO3+         3.019e-05   2.824e-05    -4.520    -4.549    -0.029      9.25
   CaCO3           5.294e-06   5.300e-06    -5.276    -5.276     0.000    -14.63
   CO3-2           4.665e-06   3.560e-06    -5.331    -5.449    -0.117     -6.44
   NaHCO3          1.427e-07   1.429e-07    -6.845    -6.845     0.000      2.13
   NaCO3-          3.931e-09   3.668e-09    -8.405    -8.436    -0.030     -1.69
Ca            1.400e-03
   Ca+2            1.365e-03   1.041e-03    -2.865    -2.983    -0.118    -18.20
   CaHCO3+         3.019e-05   2.824e-05    -4.520    -4.549    -0.029      9.25
   CaCO3           5.294e-06   5.300e-06    -5.276    -5.276     0.000    -14.63
   CaOH+           6.878e-09   6.418e-09    -8.163    -8.193    -0.030     (0)  
Cl            1.000e-04
   Cl-             1.000e-04   9.326e-05    -4.000    -4.030    -0.030     17.71
H(0)          1.136e-34
   H2              5.680e-35   5.685e-35   -34.246   -34.245     0.000     28.62
K             5.000e-05
   K+              5.000e-05   4.662e-05    -4.301    -4.331    -0.030      8.66
Na            1.000e-04
   Na+             9.985e-05   9.324e-05    -4.001    -4.030    -0.030     -1.96
   NaHCO3          1.427e-07   1.429e-07    -6.845    -6.845     0.000      2.13
   NaCO3-          3.931e-09   3.668e-09    -8.405    -8.436    -0.030     -1.69
   NaOH            1.570e-21   1.571e-21   -20.804   -20.804     0.000     (0)  
O(0)          1.180e-27
   O2              5.899e-28   5.905e-28   -27.229   -27.229     0.000     29.51

------------------------------Saturation indices-------------------------------

	Phase               SI   log IAP   log K(288 K,   1 atm)

	Aragonite        -0.15     -8.43   -8.28  CaCO3
	Calcite          -0.00     -8.43   -8.43  CaCO3
	CO2(g)           -2.40     -3.74   -1.34  CO2
	H2(g)           -31.17    -34.25   -3.07  H2
	H2O(g)           -1.77     -0.00    1.77  H2O
	Halite           -9.62     -8.06    1.56  NaCl
	O2(g)           -24.42    -27.23   -2.81  O2
	Sylvite          -9.15     -8.36    0.79  KCl


-----------------------------------------
Beginning of batch-reaction calculations.
-----------------------------------------

Reaction step 1.

Using solution 1.	
Using pure phase assemblage 1.	

-------------------------------Phase assemblage--------------------------------

                                                      Moles in assemblage
Phase               SI  log IAP  log K(T, P)   Initial       Final       Delta

Calcite           0.00    -8.43     -8.43    1.000e+01   1.000e+01  -3.018e-07

-----------------------------Solution composition------------------------------

	Elements           Molality       Moles

	C                 2.971e-03   2.971e-03
	Ca                1.400e-03   1.400e-03
	Cl                1.000e-04   1.000e-04
	K                 5.000e-05   5.000e-05
	Na                1.000e-04   1.000e-04

----------------------------Description of solution----------------------------

                                       pH  =   7.571      Charge balance
                                       pe  =  -2.092      Adjusted to redox equilibrium
       Specific Conductance (uS/cm, 15 oC) = 218
                          Density (g/cm3)  =   0.99929
                               Volume (L)  =   1.00110
                        Activity of water  =   1.000
                           Ionic strength  =   4.254e-03
                       Mass of water (kg)  =   1.000e+00
                 Total alkalinity (eq/kg)  =   2.801e-03
                       Total CO2 (mol/kg)  =   2.971e-03
                      Temperature (deg C)  =  15.00
                  Electrical balance (eq)  =   5.000e-05
 Percent error, 100*(Cat-|An|)/(Cat+|An|)  =   0.87
                               Iterations  =  17
                                  Total H  = 1.110152e+02
                                  Total O  = 5.551495e+01

----------------------------Distribution of species----------------------------

                                               Log       Log       Log    mole V
   Species          Molality    Activity  Molality  Activity     Gamma   cm3/mol

   OH-             1.811e-07   1.688e-07    -6.742    -6.773    -0.030     -4.59
   H+              2.862e-08   2.687e-08    -7.543    -7.571    -0.027      0.00
   H2O             5.551e+01   9.999e-01     1.744    -0.000     0.000     18.03
C(-4)         1.588e-22
   CH4             1.588e-22   1.589e-22   -21.799   -21.799     0.000     32.22
C(4)          2.971e-03
   HCO3-           2.750e-03   2.570e-03    -2.561    -2.590    -0.029     23.80
   CO2             1.810e-04   1.812e-04    -3.742    -3.742     0.000     31.86
   CaHCO3+         3.020e-05   2.825e-05    -4.520    -4.549    -0.029      9.25
   CaCO3           5.306e-06   5.311e-06    -5.275    -5.275     0.000    -14.63
   CO3-2           4.674e-06   3.567e-06    -5.330    -5.448    -0.117     -6.44
   NaHCO3          1.428e-07   1.429e-07    -6.845    -6.845     0.000      2.13
   NaCO3-          3.939e-09   3.675e-09    -8.405    -8.435    -0.030     -1.69
Ca            1.400e-03
   Ca+2            1.365e-03   1.041e-03    -2.865    -2.983    -0.118    -18.20
   CaHCO3+         3.020e-05   2.825e-05    -4.520    -4.549    -0.029      9.25
   CaCO3           5.306e-06   5.311e-06    -5.275    -5.275     0.000    -14.63
   CaOH+           6.891e-09   6.430e-09    -8.162    -8.192    -0.030     (0)  
Cl            1.000e-04
   Cl-             1.000e-04   9.326e-05    -4.000    -4.030    -0.030     17.71
H(0)          1.726e-14
   H2              8.629e-15   8.638e-15   -14.064   -14.064     0.000     28.62
K             5.000e-05
   K+              5.000e-05   4.662e-05    -4.301    -4.331    -0.030      8.66
Na            1.000e-04
   Na+             9.985e-05   9.324e-05    -4.001    -4.030    -0.030     -1.96
   NaHCO3          1.428e-07   1.429e-07    -6.845    -6.845     0.000      2.13
   NaCO3-          3.939e-09   3.675e-09    -8.405    -8.435    -0.030     -1.69
   NaOH            1.573e-21   1.574e-21   -20.803   -20.803     0.000     (0)  
O(0)          0.000e+00
   O2              0.000e+00   0.000e+00   -67.593   -67.592     0.000     29.51

------------------------------Saturation indices-------------------------------

	Phase               SI   log IAP   log K(288 K,   1 atm)

	Aragonite        -0.15     -8.43   -8.28  CaCO3
	Calcite           0.00     -8.43   -8.43  CaCO3
	CH4(g)          -19.04    -21.80   -2.76  CH4
	CO2(g)           -2.40     -3.74   -1.34  CO2
	H2(g)           -10.99    -14.06   -3.07  H2
	H2O(g)           -1.77     -0.00    1.77  H2O
	Halite           -9.62     -8.06    1.56  NaCl
	O2(g)           -64.78    -67.59   -2.81  O2
	Sylvite          -9.15     -8.36    0.79  KCl


------------------
End of simulation.
------------------

------------------------------------
Reading input data for simulation 3.
------------------------------------

	 SOLUTION 4-21 # Fill flowline with 18% seawater, CEC = 0.20 M
	 units mol/kgw
	 pH 6.80
	 pe 8.0
	 temp 15
	 dens 1.023
	 Ca 4.3790E-03
	 Mg 9.9162E-03
	 Na 87.381E-03
	 K 1.9044E-03
	 Cl 101.84E-03
	 Alkalinity 15.502E-03
	 S(6) 0.2670E-03
	EQUILIBRIUM_PHASES 4-21
	 Calcite
	SAVE solution 4-21
	END
-------------------------------------------
Beginning of initial solution calculations.
-------------------------------------------

Initial solution 4.	

-----------------------------Solution composition------------------------------

	Elements           Molality       Moles

	Alkalinity        1.550e-02   1.550e-02
	Ca                4.379e-03   4.379e-03
	Cl                1.018e-01   1.018e-01
	K                 1.904e-03   1.904e-03
	Mg                9.916e-03   9.916e-03
	Na                8.738e-02   8.738e-02
	S(6)              2.670e-04   2.670e-04

----------------------------Description of solution----------------------------

                                       pH  =   6.800    
                                       pe  =   8.000    
       Specific Conductance (uS/cm, 15 oC) = 9348
                          Density (g/cm3)  =   1.00443
                               Volume (L)  =   1.00383
                        Activity of water  =   0.996
                           Ionic strength  =   1.301e-01
                       Mass of water (kg)  =   1.000e+00
                    Total carbon (mol/kg)  =   1.994e-02
                       Total CO2 (mol/kg)  =   1.994e-02
                      Temperature (deg C)  =  15.00
                  Electrical balance (eq)  =  -2.000e-07
 Percent error, 100*(Cat-|An|)/(Cat+|An|)  =  -0.00
                               Iterations  =   8
                                  Total H  = 1.110279e+02
                                  Total O  = 5.556265e+01

----------------------------Distribution of species----------------------------

                                               Log       Log       Log    mole V
   Species          Molality    Activity  Molality  Activity     Gamma   cm3/mol

   H+              1.940e-07   1.585e-07    -6.712    -6.800    -0.088      0.00
   OH-             3.829e-08   2.851e-08    -7.417    -7.545    -0.128     -4.20
   H2O             5.551e+01   9.962e-01     1.744    -0.002     0.000     18.03
C(4)          1.994e-02
   HCO3-           1.421e-02   1.102e-02    -1.847    -1.958    -0.111     24.41
   CO2             4.462e-03   4.597e-03    -2.351    -2.338     0.013     31.86
   MgHCO3+         5.928e-04   4.466e-04    -3.227    -3.350    -0.123      5.32
   NaHCO3          4.287e-04   4.417e-04    -3.368    -3.355     0.013      2.13
   CaHCO3+         2.259e-04   1.770e-04    -3.646    -3.752    -0.106      9.39
   MgCO3           7.377e-06   7.602e-06    -5.132    -5.119     0.013    -17.08
   CO3-2           7.175e-06   2.592e-06    -5.144    -5.586    -0.442     -5.28
   CaCO3           5.473e-06   5.640e-06    -5.262    -5.249     0.013    -14.63
   NaCO3-          2.500e-06   1.926e-06    -5.602    -5.715    -0.113     -0.90
Ca            4.379e-03
   Ca+2            4.132e-03   1.522e-03    -2.384    -2.818    -0.434    -17.59
   CaHCO3+         2.259e-04   1.770e-04    -3.646    -3.752    -0.106      9.39
   CaSO4           1.555e-05   1.602e-05    -4.808    -4.795     0.013      7.06
   CaCO3           5.473e-06   5.640e-06    -5.262    -5.249     0.013    -14.63
   CaOH+           2.061e-09   1.587e-09    -8.686    -8.799    -0.113     (0)  
   CaHSO4+         1.900e-11   1.464e-11   -10.721   -10.835    -0.113     (0)  
Cl            1.018e-01
   Cl-             1.018e-01   7.646e-02    -0.992    -1.117    -0.124     17.96
H(0)          3.826e-33
   H2              1.913e-33   1.971e-33   -32.718   -32.705     0.013     28.62
K             1.904e-03
   K+              1.904e-03   1.424e-03    -2.720    -2.847    -0.126      8.89
   KSO4-           6.893e-07   5.344e-07    -6.162    -6.272    -0.111     (0)  
Mg            9.916e-03
   Mg+2            9.276e-03   3.584e-03    -2.033    -2.446    -0.413    -20.74
   MgHCO3+         5.928e-04   4.466e-04    -3.227    -3.350    -0.123      5.32
   MgSO4           3.996e-05   4.118e-05    -4.398    -4.385     0.013      5.40
   MgCO3           7.377e-06   7.602e-06    -5.132    -5.119     0.013    -17.08
   MgOH+           4.068e-08   3.213e-08    -7.391    -7.493    -0.102     (0)  
Na            8.738e-02
   Na+             8.692e-02   6.724e-02    -1.061    -1.172    -0.112     -1.64
   NaHCO3          4.287e-04   4.417e-04    -3.368    -3.355     0.013      2.13
   NaSO4-          2.605e-05   2.019e-05    -4.584    -4.695    -0.111     19.50
   NaCO3-          2.500e-06   1.926e-06    -5.602    -5.715    -0.113     -0.90
   NaOH            1.861e-19   1.917e-19   -18.730   -18.717     0.013     (0)  
O(0)          9.462e-31
   O2              4.731e-31   4.875e-31   -30.325   -30.312     0.013     29.51
S(6)          2.670e-04
   SO4-2           1.848e-04   6.398e-05    -3.733    -4.194    -0.461     13.61
   MgSO4           3.996e-05   4.118e-05    -4.398    -4.385     0.013      5.40
   NaSO4-          2.605e-05   2.019e-05    -4.584    -4.695    -0.111     19.50
   CaSO4           1.555e-05   1.602e-05    -4.808    -4.795     0.013      7.06
   KSO4-           6.893e-07   5.344e-07    -6.162    -6.272    -0.111     (0)  
   HSO4-           1.039e-09   8.000e-10    -8.983    -9.097    -0.113     39.73
   CaHSO4+         1.900e-11   1.464e-11   -10.721   -10.835    -0.113     (0)  

------------------------------Saturation indices-------------------------------

	Phase               SI   log IAP   log K(288 K,   1 atm)

	Anhydrite        -2.84     -7.01   -4.17  CaSO4
	Aragonite        -0.13     -8.40   -8.28  CaCO3
	Calcite           0.03     -8.40   -8.43  CaCO3
	CO2(g)           -1.00     -2.34   -1.34  CO2
	Dolomite          0.41    -16.44  -16.85  CaMg(CO3)2
	Gypsum           -2.43     -7.01   -4.58  CaSO4:2H2O
	H2(g)           -29.63    -32.71   -3.07  H2
	H2O(g)           -1.77     -0.00    1.77  H2O
	Halite           -3.85     -2.29    1.56  NaCl
	O2(g)           -27.50    -30.31   -2.81  O2
	Sylvite          -4.76     -3.96    0.79  KCl


-----------------------------------------
Beginning of batch-reaction calculations.
-----------------------------------------

Reaction step 1.

Using solution 4.	
Using pure phase assemblage 4.	

-------------------------------Phase assemblage--------------------------------

                                                      Moles in assemblage
Phase               SI  log IAP  log K(T, P)   Initial       Final       Delta

Calcite           0.00    -8.43     -8.43    1.000e+01   1.000e+01   8.755e-05

-----------------------------Solution composition------------------------------

	Elements           Molality       Moles

	C                 1.985e-02   1.985e-02
	Ca                4.291e-03   4.291e-03
	Cl                1.018e-01   1.018e-01
	K                 1.904e-03   1.904e-03
	Mg                9.916e-03   9.916e-03
	Na                8.738e-02   8.738e-02
	S                 2.670e-04   2.670e-04

----------------------------Description of solution----------------------------

                                       pH  =   6.787      Charge balance
                                       pe  =  11.881      Adjusted to redox equilibrium
       Specific Conductance (uS/cm, 15 oC) = 9339
                          Density (g/cm3)  =   1.00442
                               Volume (L)  =   1.00383
                        Activity of water  =   0.996
                           Ionic strength  =   1.298e-01
                       Mass of water (kg)  =   1.000e+00
                 Total alkalinity (eq/kg)  =   1.533e-02
                       Total CO2 (mol/kg)  =   1.985e-02
                      Temperature (deg C)  =  15.00
                  Electrical balance (eq)  =  -2.000e-07
 Percent error, 100*(Cat-|An|)/(Cat+|An|)  =  -0.00
                               Iterations  =  15
                                  Total H  = 1.110279e+02
                                  Total O  = 5.556238e+01

----------------------------Distribution of species----------------------------

                                               Log       Log       Log    mole V
   Species          Molality    Activity  Molality  Activity     Gamma   cm3/mol

   H+              1.999e-07   1.633e-07    -6.699    -6.787    -0.088      0.00
   OH-             3.715e-08   2.767e-08    -7.430    -7.558    -0.128     -4.20
   H2O             5.551e+01   9.962e-01     1.744    -0.002     0.000     18.03
C(-4)         0.000e+00
   CH4             0.000e+00   0.000e+00  -125.910  -125.897     0.013     32.22
C(4)          1.985e-02
   HCO3-           1.405e-02   1.090e-02    -1.852    -1.963    -0.110     24.41
   CO2             4.548e-03   4.686e-03    -2.342    -2.329     0.013     31.86
   MgHCO3+         5.869e-04   4.423e-04    -3.231    -3.354    -0.123      5.32
   NaHCO3          4.241e-04   4.370e-04    -3.373    -3.360     0.013      2.13
   CaHCO3+         2.192e-04   1.717e-04    -3.659    -3.765    -0.106      9.39
   MgCO3           7.089e-06   7.304e-06    -5.149    -5.136     0.013    -17.08
   CO3-2           6.883e-06   2.488e-06    -5.162    -5.604    -0.442     -5.28
   CaCO3           5.154e-06   5.311e-06    -5.288    -5.275     0.013    -14.63
   NaCO3-          2.400e-06   1.849e-06    -5.620    -5.733    -0.113     -0.90
Ca            4.291e-03
   Ca+2            4.052e-03   1.493e-03    -2.392    -2.826    -0.434    -17.59
   CaHCO3+         2.192e-04   1.717e-04    -3.659    -3.765    -0.106      9.39
   CaSO4           1.527e-05   1.574e-05    -4.816    -4.803     0.013      7.06
   CaCO3           5.154e-06   5.311e-06    -5.288    -5.275     0.013    -14.63
   CaOH+           1.962e-09   1.511e-09    -8.707    -8.821    -0.113     (0)  
   CaHSO4+         1.924e-11   1.482e-11   -10.716   -10.829    -0.113     (0)  
Cl            1.018e-01
   Cl-             1.018e-01   7.647e-02    -0.992    -1.117    -0.124     17.96
H(0)          0.000e+00
   H2              0.000e+00   0.000e+00   -40.455   -40.442     0.013     28.62
K             1.904e-03
   K+              1.904e-03   1.424e-03    -2.720    -2.846    -0.126      8.89
   KSO4-           6.903e-07   5.352e-07    -6.161    -6.271    -0.110     (0)  
Mg            9.916e-03
   Mg+2            9.282e-03   3.588e-03    -2.032    -2.445    -0.413    -20.74
   MgHCO3+         5.869e-04   4.423e-04    -3.231    -3.354    -0.123      5.32
   MgSO4           4.006e-05   4.128e-05    -4.397    -4.384     0.013      5.40
   MgCO3           7.089e-06   7.304e-06    -5.149    -5.136     0.013    -17.08
   MgOH+           3.951e-08   3.121e-08    -7.403    -7.506    -0.102     (0)  
Na            8.738e-02
   Na+             8.693e-02   6.725e-02    -1.061    -1.172    -0.111     -1.64
   NaHCO3          4.241e-04   4.370e-04    -3.373    -3.360     0.013      2.13
   NaSO4-          2.608e-05   2.022e-05    -4.584    -4.694    -0.110     19.50
   NaCO3-          2.400e-06   1.849e-06    -5.620    -5.733    -0.113     -0.90
   NaOH            1.806e-19   1.861e-19   -18.743   -18.730     0.013     (0)  
O(0)          2.817e-15
   O2              1.408e-15   1.451e-15   -14.851   -14.838     0.013     29.51
S(-2)         0.000e+00
   H2S             0.000e+00   0.000e+00  -124.857  -124.844     0.013     37.12
   HS-             0.000e+00   0.000e+00  -125.013  -125.141    -0.128     20.31
   S-2             0.000e+00   0.000e+00  -131.125  -131.580    -0.455     (0)  
S(6)          2.670e-04
   SO4-2           1.849e-04   6.407e-05    -3.733    -4.193    -0.460     13.61
   MgSO4           4.006e-05   4.128e-05    -4.397    -4.384     0.013      5.40
   NaSO4-          2.608e-05   2.022e-05    -4.584    -4.694    -0.110     19.50
   CaSO4           1.527e-05   1.574e-05    -4.816    -4.803     0.013      7.06
   KSO4-           6.903e-07   5.352e-07    -6.161    -6.271    -0.110     (0)  
   HSO4-           1.072e-09   8.256e-10    -8.970    -9.083    -0.113     39.73
   CaHSO4+         1.924e-11   1.482e-11   -10.716   -10.829    -0.113     (0)  

------------------------------Saturation indices-------------------------------

	Phase               SI   log IAP   log K(288 K,   1 atm)

	Anhydrite        -2.85     -7.02   -4.17  CaSO4
	Aragonite        -0.15     -8.43   -8.28  CaCO3
	Calcite           0.00     -8.43   -8.43  CaCO3
	CH4(g)         -123.14   -125.90   -2.76  CH4
	CO2(g)           -0.99     -2.33   -1.34  CO2
	Dolomite          0.37    -16.48  -16.85  CaMg(CO3)2
	Gypsum           -2.44     -7.02   -4.58  CaSO4:2H2O
	H2(g)           -37.37    -40.44   -3.07  H2
	H2O(g)           -1.77     -0.00    1.77  H2O
	H2S(g)         -123.91   -131.93   -8.02  H2S
	Halite           -3.85     -2.29    1.56  NaCl
	O2(g)           -12.03    -14.84   -2.81  O2
	Sulfur          -92.63    -87.51    5.12  S
	Sylvite          -4.76     -3.96    0.79  KCl


------------------
End of simulation.
------------------

------------------------------------
Reading input data for simulation 4.
------------------------------------

	EXCHANGE 4-21
	 X 0.2
	 equilibrate 4
	END 
-------------------------------------------------------
Beginning of initial exchange-composition calculations.
-------------------------------------------------------

Exchange 4.	

X                2.000e-01 mol

	                               Equiv-    Equivalent      Log 
	Species             Moles      alents      Fraction     Gamma

	HX                4.571e-02   4.571e-02   2.286e-01    -2.711
	NaX               3.817e-02   3.817e-02   1.908e-01    -0.518
	MgX2              2.832e-02   5.665e-02   2.832e-01    -0.413
	CaX2              2.560e-02   5.119e-02   2.560e-01    -0.434
	KX                8.277e-03   8.277e-03   4.139e-02    -0.126

------------------
End of simulation.
------------------

------------------------------------
Reading input data for simulation 5.
------------------------------------

	MIX	13	
		11	0.9	
		13	0.1
	MIX	14	
		13	0.8	
		14	0.2
	MIX	15	
		14	0.7	
		15	0.3
	MIX	16	
		15	0.6	
		16	0.4
	MIX	17	
		16	0.5	
		17	0.5
	MIX	18	
		17	0.4	
		18	0.6
	MIX	19	
		18	0.3	
		19	0.7
	MIX	20	
		19	0.2	
		20	0.8
	MIX	21	
		20	0.1	
		21	0.9
	END
-----------------------------------------
Beginning of batch-reaction calculations.
-----------------------------------------

Reaction step 1.

Using mix 13.	

Mixture 13.	

	  9.000e-01 Solution 11	Solution after simulation 3.                           
	  1.000e-01 Solution 13	Solution after simulation 3.                           

-----------------------------Solution composition------------------------------

	Elements           Molality       Moles

	C                 1.985e-02   1.985e-02
	Ca                4.291e-03   4.291e-03
	Cl                1.018e-01   1.018e-01
	K                 1.904e-03   1.904e-03
	Mg                9.916e-03   9.916e-03
	Na                8.738e-02   8.738e-02
	S                 2.670e-04   2.670e-04

----------------------------Description of solution----------------------------

                                       pH  =   6.787      Charge balance
                                       pe  =  11.881      Adjusted to redox equilibrium
       Specific Conductance (uS/cm, 15 oC) = 9339
                          Density (g/cm3)  =   1.00442
                               Volume (L)  =   1.00383
                        Activity of water  =   0.996
                           Ionic strength  =   1.298e-01
                       Mass of water (kg)  =   1.000e+00
                 Total alkalinity (eq/kg)  =   1.533e-02
                       Total CO2 (mol/kg)  =   1.985e-02
                      Temperature (deg C)  =  15.00
                  Electrical balance (eq)  =  -2.000e-07
 Percent error, 100*(Cat-|An|)/(Cat+|An|)  =  -0.00
                               Iterations  =   0
                                  Total H  = 1.110279e+02
                                  Total O  = 5.556238e+01

----------------------------Distribution of species----------------------------

                                               Log       Log       Log    mole V
   Species          Molality    Activity  Molality  Activity     Gamma   cm3/mol

   H+              1.999e-07   1.633e-07    -6.699    -6.787    -0.088      0.00
   OH-             3.715e-08   2.767e-08    -7.430    -7.558    -0.128     -4.20
   H2O             5.551e+01   9.962e-01     1.744    -0.002     0.000     18.03
C(-4)         0.000e+00
   CH4             0.000e+00   0.000e+00  -125.910  -125.897     0.013     32.22
C(4)          1.985e-02
   HCO3-           1.405e-02   1.090e-02    -1.852    -1.963    -0.110     24.41
   CO2             4.548e-03   4.686e-03    -2.342    -2.329     0.013     31.86
   MgHCO3+         5.869e-04   4.423e-04    -3.231    -3.354    -0.123      5.32
   NaHCO3          4.241e-04   4.370e-04    -3.373    -3.360     0.013      2.13
   CaHCO3+         2.192e-04   1.717e-04    -3.659    -3.765    -0.106      9.39
   MgCO3           7.089e-06   7.304e-06    -5.149    -5.136     0.013    -17.08
   CO3-2           6.883e-06   2.488e-06    -5.162    -5.604    -0.442     -5.28
   CaCO3           5.154e-06   5.311e-06    -5.288    -5.275     0.013    -14.63
   NaCO3-          2.400e-06   1.849e-06    -5.620    -5.733    -0.113     -0.90
Ca            4.291e-03
   Ca+2            4.052e-03   1.493e-03    -2.392    -2.826    -0.434    -17.59
   CaHCO3+         2.192e-04   1.717e-04    -3.659    -3.765    -0.106      9.39
   CaSO4           1.527e-05   1.574e-05    -4.816    -4.803     0.013      7.06
   CaCO3           5.154e-06   5.311e-06    -5.288    -5.275     0.013    -14.63
   CaOH+           1.962e-09   1.511e-09    -8.707    -8.821    -0.113     (0)  
   CaHSO4+         1.924e-11   1.482e-11   -10.716   -10.829    -0.113     (0)  
Cl            1.018e-01
   Cl-             1.018e-01   7.647e-02    -0.992    -1.117    -0.124     17.96
H(0)          0.000e+00
   H2              0.000e+00   0.000e+00   -40.455   -40.442     0.013     28.62
K             1.904e-03
   K+              1.904e-03   1.424e-03    -2.720    -2.846    -0.126      8.89
   KSO4-           6.903e-07   5.352e-07    -6.161    -6.271    -0.110     (0)  
Mg            9.916e-03
   Mg+2            9.282e-03   3.588e-03    -2.032    -2.445    -0.413    -20.74
   MgHCO3+         5.869e-04   4.423e-04    -3.231    -3.354    -0.123      5.32
   MgSO4           4.006e-05   4.128e-05    -4.397    -4.384     0.013      5.40
   MgCO3           7.089e-06   7.304e-06    -5.149    -5.136     0.013    -17.08
   MgOH+           3.951e-08   3.121e-08    -7.403    -7.506    -0.102     (0)  
Na            8.738e-02
   Na+             8.693e-02   6.725e-02    -1.061    -1.172    -0.111     -1.64
   NaHCO3          4.241e-04   4.370e-04    -3.373    -3.360     0.013      2.13
   NaSO4-          2.608e-05   2.022e-05    -4.584    -4.694    -0.110     19.50
   NaCO3-          2.400e-06   1.849e-06    -5.620    -5.733    -0.113     -0.90
   NaOH            1.806e-19   1.861e-19   -18.743   -18.730     0.013     (0)  
O(0)          2.817e-15
   O2              1.408e-15   1.451e-15   -14.851   -14.838     0.013     29.51
S(-2)         0.000e+00
   H2S             0.000e+00   0.000e+00  -124.857  -124.844     0.013     37.12
   HS-             0.000e+00   0.000e+00  -125.013  -125.141    -0.128     20.31
   S-2             0.000e+00   0.000e+00  -131.125  -131.580    -0.455     (0)  
S(6)          2.670e-04
   SO4-2           1.849e-04   6.407e-05    -3.733    -4.193    -0.460     13.61
   MgSO4           4.006e-05   4.128e-05    -4.397    -4.384     0.013      5.40
   NaSO4-          2.608e-05   2.022e-05    -4.584    -4.694    -0.110     19.50
   CaSO4           1.527e-05   1.574e-05    -4.816    -4.803     0.013      7.06
   KSO4-           6.903e-07   5.352e-07    -6.161    -6.271    -0.110     (0)  
   HSO4-           1.072e-09   8.256e-10    -8.970    -9.083    -0.113     39.73
   CaHSO4+         1.924e-11   1.482e-11   -10.716   -10.829    -0.113     (0)  

------------------------------Saturation indices-------------------------------

	Phase               SI   log IAP   log K(288 K,   1 atm)

	Anhydrite        -2.85     -7.02   -4.17  CaSO4
	Aragonite        -0.15     -8.43   -8.28  CaCO3
	Calcite          -0.00     -8.43   -8.43  CaCO3
	CH4(g)         -123.14   -125.90   -2.76  CH4
	CO2(g)           -0.99     -2.33   -1.34  CO2
	Dolomite          0.37    -16.48  -16.85  CaMg(CO3)2
	Gypsum           -2.44     -7.02   -4.58  CaSO4:2H2O
	H2(g)           -37.37    -40.44   -3.07  H2
	H2O(g)           -1.77     -0.00    1.77  H2O
	H2S(g)         -123.91   -131.93   -8.02  H2S
	Halite           -3.85     -2.29    1.56  NaCl
	O2(g)           -12.03    -14.84   -2.81  O2
	Sulfur          -92.63    -87.51    5.12  S
	Sylvite          -4.76     -3.96    0.79  KCl


------------------
End of simulation.
------------------

------------------------------------
Reading input data for simulation 6.
------------------------------------

	PRINT
	 reset false
WARNING: Cell-lengths were read for 1 cells. Last value is used till cell 11.
WARNING: Dispersivities were read for 1 cells. Last value is used till cell 11.
WARNING: Maximum iterations exceeded, 100

WARNING: Numerical method failed with this set of convergence parameters.

WARNING: Trying smaller step size, pe step size 10, 5 ... 

WARNING: Maximum iterations exceeded, 100

WARNING: Numerical method failed with this set of convergence parameters.

WARNING: Trying smaller step size, pe step size 10, 5 ... 

WARNING: Maximum iterations exceeded, 100

WARNING: Numerical method failed with this set of convergence parameters.

WARNING: Trying smaller step size, pe step size 10, 5 ... 

WARNING: Maximum iterations exceeded, 100

WARNING: Numerical method failed with this set of convergence parameters.

WARNING: Trying smaller step size, pe step size 10, 5 ... 

WARNING: Maximum iterations exceeded, 100

WARNING: Numerical method failed with this set of convergence parameters.

WARNING: Trying smaller step size, pe step size 10, 5 ... 

WARNING: Maximum iterations exceeded, 100

WARNING: Numerical method failed with this set of convergence parameters.

WARNING: Trying smaller step size, pe step size 10, 5 ... 

WARNING: Maximum iterations exceeded, 100

WARNING: Numerical method failed with this set of convergence parameters.

WARNING: Trying smaller step size, pe step size 10, 5 ... 

WARNING: Maximum iterations exceeded, 100

WARNING: Numerical method failed with this set of convergence parameters.

WARNING: Trying smaller step size, pe step size 10, 5 ... 

WARNING: Maximum iterations exceeded, 100

WARNING: Numerical method failed with this set of convergence parameters.

WARNING: Trying smaller step size, pe step size 10, 5 ... 

WARNING: Maximum iterations exceeded, 100

WARNING: Numerical method failed with this set of convergence parameters.

WARNING: Trying smaller step size, pe step size 10, 5 ... 

WARNING: Maximum iterations exceeded, 100

WARNING: Numerical method failed with this set of convergence parameters.

WARNING: Trying smaller step size, pe step size 10, 5 ... 

WARNING: Maximum iterations exceeded, 100

WARNING: Numerical method failed with this set of convergence parameters.

WARNING: Trying smaller step size, pe step size 10, 5 ... 

WARNING: Maximum iterations exceeded, 100

WARNING: Numerical method failed with this set of convergence parameters.

WARNING: Trying smaller step size, pe step size 10, 5 ... 

WARNING: Maximum iterations exceeded, 100

WARNING: Numerical method failed with this set of convergence parameters.

WARNING: Trying smaller step size, pe step size 10, 5 ... 

WARNING: Maximum iterations exceeded, 100

WARNING: Numerical method failed with this set of convergence parameters.

WARNING: Trying smaller step size, pe step size 10, 5 ... 

WARNING: Maximum iterations exceeded, 100

WARNING: Numerical method failed with this set of convergence parameters.

WARNING: Trying smaller step size, pe step size 10, 5 ... 

WARNING: Maximum iterations exceeded, 100

WARNING: Numerical method failed with this set of convergence parameters.

WARNING: Trying smaller step size, pe step size 10, 5 ... 

WARNING: Maximum iterations exceeded, 100

WARNING: Numerical method failed with this set of convergence parameters.

WARNING: Trying smaller step size, pe step size 10, 5 ... 

WARNING: Maximum iterations exceeded, 100

WARNING: Numerical method failed with this set of convergence parameters.

WARNING: Trying smaller step size, pe step size 10, 5 ... 

WARNING: Maximum iterations exceeded, 100

WARNING: Numerical method failed with this set of convergence parameters.

WARNING: Trying smaller step size, pe step size 10, 5 ... 

WARNING: Maximum iterations exceeded, 100

WARNING: Numerical method failed with this set of convergence parameters.

WARNING: Trying smaller step size, pe step size 10, 5 ... 

WARNING: Maximum iterations exceeded, 100

WARNING: Numerical method failed with this set of convergence parameters.

WARNING: Trying smaller step size, pe step size 10, 5 ... 

WARNING: Maximum iterations exceeded, 100

WARNING: Numerical method failed with this set of convergence parameters.

WARNING: Trying smaller step size, pe step size 10, 5 ... 

WARNING: Maximum iterations exceeded, 100

WARNING: Numerical method failed with this set of convergence parameters.

WARNING: Trying smaller step size, pe step size 10, 5 ... 

WARNING: Maximum iterations exceeded, 100

WARNING: Numerical method failed with this set of convergence parameters.

WARNING: Trying smaller step size, pe step size 10, 5 ... 

WARNING: Maximum iterations exceeded, 100

WARNING: Numerical method failed with this set of convergence parameters.

WARNING: Trying smaller step size, pe step size 10, 5 ... 

WARNING: Maximum iterations exceeded, 100

WARNING: Numerical method failed with this set of convergence parameters.

WARNING: Trying smaller step size, pe step size 10, 5 ... 

WARNING: Maximum iterations exceeded, 100

WARNING: Numerical method failed with this set of convergence parameters.

WARNING: Trying smaller step size, pe step size 10, 5 ... 

WARNING: Maximum iterations exceeded, 100

WARNING: Numerical method failed with this set of convergence parameters.

WARNING: Trying smaller step size, pe step size 10, 5 ... 

WARNING: Maximum iterations exceeded, 100

WARNING: Numerical method failed with this set of convergence parameters.

WARNING: Trying smaller step size, pe step size 10, 5 ... 

WARNING: Maximum iterations exceeded, 100

WARNING: Numerical method failed with this set of convergence parameters.

WARNING: Trying smaller step size, pe step size 10, 5 ... 

WARNING: Maximum iterations exceeded, 100

WARNING: Numerical method failed with this set of convergence parameters.

WARNING: Trying smaller step size, pe step size 10, 5 ... 

WARNING: Maximum iterations exceeded, 100

WARNING: Numerical method failed with this set of convergence parameters.

-------------------------------
End of Run after 40.78 Seconds.
-------------------------------

