   Input file: aquia
  Output file: aquia.out
Database file: ../database/phreeqc.dat

------------------
Reading data base.
------------------

	SOLUTION_MASTER_SPECIES
	SOLUTION_SPECIES
	PHASES
	EXCHANGE_MASTER_SPECIES
	EXCHANGE_SPECIES
	SURFACE_MASTER_SPECIES
	SURFACE_SPECIES
	RATES
	END
------------------------------------
Reading input data for simulation 1.
------------------------------------

	DATABASE ../database/phreeqc.dat
	EXCHANGE_SPECIES
	  H+ + X- = HX
	 log_k 3.0
	 gamma 9.0 0.0 3.4
	  Na+ + X- = NaX
	 log_k -0.5
	 gamma 4.0 0.075 0.5
	  K+ + X- = KX
	 log_k 0.902
	 gamma 3.5 0.015
	  Ca+2 + 2X- = CaX2
	 log_k 0.93
	 gamma 5.0 0.165
	  Mg+2 + 2X- = MgX2
	 log_k 0.614
	 gamma 5.5 0.20
	SOLUTION 0
	 units mol/kgw
	 pH 7.57
	 pe 8.0
	 temp 15
	 Ca 1.4000E-03
	 Alkalinity 2.8000E-03
	 Na 0.1e-3
	 K 0.05e-3
	 Cl 0.1e-3
	END
-------------------------------------------
Beginning of initial solution calculations.
-------------------------------------------

Initial solution 0.	

-----------------------------Solution composition------------------------------

	Elements           Molality       Moles

	Alkalinity        2.800e-03   2.800e-03
	Ca                1.400e-03   1.400e-03
	Cl                1.000e-04   1.000e-04
	K                 5.000e-05   5.000e-05
	Na                1.000e-04   1.000e-04

----------------------------Description of solution----------------------------

                                       pH  =   7.570    
                                       pe  =   8.000    
       Specific Conductance (uS/cm, 15 oC) = 218
                          Density (g/cm3)  =   0.99934
                        Activity of water  =   1.000
                           Ionic strength  =   4.253e-03
                       Mass of water (kg)  =   1.000e+00
                    Total carbon (mol/kg)  =   2.971e-03
                       Total CO2 (mol/kg)  =   2.971e-03
                      Temperature (deg C)  =  15.00
                  Electrical balance (eq)  =   5.000e-05
 Percent error, 100*(Cat-|An|)/(Cat+|An|)  =   0.87
                               Iterations  =   7
                                  Total H  = 1.110152e+02
                                  Total O  = 5.551495e+01

----------------------------Distribution of species----------------------------

                                                   Log       Log         Log 
   Species                 Molality    Activity  Molality  Activity     Gamma

   OH-                    1.796e-07   1.675e-07    -6.746    -6.776    -0.030
   H+                     2.867e-08   2.692e-08    -7.543    -7.570    -0.027
   H2O                    5.551e+01   9.999e-01     1.744    -0.000     0.000
C(4)             2.971e-03
   HCO3-                  2.750e-03   2.570e-03    -2.561    -2.590    -0.029
   CO2                    1.813e-04   1.815e-04    -3.742    -3.741     0.000
   CaHCO3+                3.022e-05   2.825e-05    -4.520    -4.549    -0.029
   CaCO3                  5.296e-06   5.301e-06    -5.276    -5.276     0.000
   CO3-2                  4.664e-06   3.561e-06    -5.331    -5.448    -0.117
   NaHCO3                 1.346e-07   1.348e-07    -6.871    -6.870     0.000
   NaCO3-                 3.931e-09   3.668e-09    -8.405    -8.436    -0.030
Ca               1.400e-03
   Ca+2                   1.364e-03   1.041e-03    -2.865    -2.982    -0.117
   CaHCO3+                3.022e-05   2.825e-05    -4.520    -4.549    -0.029
   CaCO3                  5.296e-06   5.301e-06    -5.276    -5.276     0.000
   CaOH+                  6.879e-09   6.419e-09    -8.162    -8.193    -0.030
Cl               1.000e-04
   Cl-                    1.000e-04   9.325e-05    -4.000    -4.030    -0.030
H(0)             1.136e-34
   H2                     5.680e-35   5.685e-35   -34.246   -34.245     0.000
K                5.000e-05
   K+                     5.000e-05   4.662e-05    -4.301    -4.331    -0.030
   KOH                    6.000e-12   6.006e-12   -11.222   -11.221     0.000
Na               1.000e-04
   Na+                    9.986e-05   9.324e-05    -4.001    -4.030    -0.030
   NaHCO3                 1.346e-07   1.348e-07    -6.871    -6.870     0.000
   NaCO3-                 3.931e-09   3.668e-09    -8.405    -8.436    -0.030
   NaOH                   2.286e-11   2.289e-11   -10.641   -10.640     0.000
O(0)             1.180e-27
   O2                     5.899e-28   5.905e-28   -27.229   -27.229     0.000

------------------------------Saturation indices-------------------------------

	Phase               SI   log IAP   log K(288 K,   1 atm)

	Aragonite        -0.15*    -8.43   -8.28  CaCO3	 Delta_V -23.54 cm3/mol
	Calcite          -0.00*    -8.43   -8.43  CaCO3	 Delta_V -23.54 cm3/mol
	CO2(g)           -2.40*    -3.74   -1.34  CO2	 Delta_V -23.19 cm3/mol
	H2(g)           -31.14    -34.25   -3.11  H2
	H2O(g)           -1.78*    -0.00    1.78  H2O	 Delta_V  18.03 cm3/mol
	Halite           -9.62*    -8.06    1.56  NaCl	 Delta_V  15.43 cm3/mol
	O2(g)           -24.42*   -27.23   -2.81  O2	 Delta_V  36.06 cm3/mol
	                      *  with Delta_V * (P - 1) / 2.3RT.

------------------
End of simulation.
------------------

------------------------------------
Reading input data for simulation 2.
------------------------------------

	 SOLUTION 1-3 # Fill first 10 miles with just average infiltrating water; no X
	 units mol/kgw
	 pH 7.57
	 pe 8.0
	 temp 15
	 Ca 1.4000E-03
	 Alkalinity 2.8000E-03
	 Na 0.1e-3
	 K 0.05e-3
	 Cl 0.1e-3
	EQUILIBRIUM_PHASES 1-3
	 Calcite
	SAVE solution 1-3
	END
-------------------------------------------
Beginning of initial solution calculations.
-------------------------------------------

Initial solution 1.	

-----------------------------Solution composition------------------------------

	Elements           Molality       Moles

	Alkalinity        2.800e-03   2.800e-03
	Ca                1.400e-03   1.400e-03
	Cl                1.000e-04   1.000e-04
	K                 5.000e-05   5.000e-05
	Na                1.000e-04   1.000e-04

----------------------------Description of solution----------------------------

                                       pH  =   7.570    
                                       pe  =   8.000    
       Specific Conductance (uS/cm, 15 oC) = 218
                          Density (g/cm3)  =   0.99934
                        Activity of water  =   1.000
                           Ionic strength  =   4.253e-03
                       Mass of water (kg)  =   1.000e+00
                    Total carbon (mol/kg)  =   2.971e-03
                       Total CO2 (mol/kg)  =   2.971e-03
                      Temperature (deg C)  =  15.00
                  Electrical balance (eq)  =   5.000e-05
 Percent error, 100*(Cat-|An|)/(Cat+|An|)  =   0.87
                               Iterations  =   7
                                  Total H  = 1.110152e+02
                                  Total O  = 5.551495e+01

----------------------------Distribution of species----------------------------

                                                   Log       Log         Log 
   Species                 Molality    Activity  Molality  Activity     Gamma

   OH-                    1.796e-07   1.675e-07    -6.746    -6.776    -0.030
   H+                     2.867e-08   2.692e-08    -7.543    -7.570    -0.027
   H2O                    5.551e+01   9.999e-01     1.744    -0.000     0.000
C(4)             2.971e-03
   HCO3-                  2.750e-03   2.570e-03    -2.561    -2.590    -0.029
   CO2                    1.813e-04   1.815e-04    -3.742    -3.741     0.000
   CaHCO3+                3.022e-05   2.825e-05    -4.520    -4.549    -0.029
   CaCO3                  5.296e-06   5.301e-06    -5.276    -5.276     0.000
   CO3-2                  4.664e-06   3.561e-06    -5.331    -5.448    -0.117
   NaHCO3                 1.346e-07   1.348e-07    -6.871    -6.870     0.000
   NaCO3-                 3.931e-09   3.668e-09    -8.405    -8.436    -0.030
Ca               1.400e-03
   Ca+2                   1.364e-03   1.041e-03    -2.865    -2.982    -0.117
   CaHCO3+                3.022e-05   2.825e-05    -4.520    -4.549    -0.029
   CaCO3                  5.296e-06   5.301e-06    -5.276    -5.276     0.000
   CaOH+                  6.879e-09   6.419e-09    -8.162    -8.193    -0.030
Cl               1.000e-04
   Cl-                    1.000e-04   9.325e-05    -4.000    -4.030    -0.030
H(0)             1.136e-34
   H2                     5.680e-35   5.685e-35   -34.246   -34.245     0.000
K                5.000e-05
   K+                     5.000e-05   4.662e-05    -4.301    -4.331    -0.030
   KOH                    6.000e-12   6.006e-12   -11.222   -11.221     0.000
Na               1.000e-04
   Na+                    9.986e-05   9.324e-05    -4.001    -4.030    -0.030
   NaHCO3                 1.346e-07   1.348e-07    -6.871    -6.870     0.000
   NaCO3-                 3.931e-09   3.668e-09    -8.405    -8.436    -0.030
   NaOH                   2.286e-11   2.289e-11   -10.641   -10.640     0.000
O(0)             1.180e-27
   O2                     5.899e-28   5.905e-28   -27.229   -27.229     0.000

------------------------------Saturation indices-------------------------------

	Phase               SI   log IAP   log K(288 K,   1 atm)

	Aragonite        -0.15*    -8.43   -8.28  CaCO3	 Delta_V -23.54 cm3/mol
	Calcite          -0.00*    -8.43   -8.43  CaCO3	 Delta_V -23.54 cm3/mol
	CO2(g)           -2.40*    -3.74   -1.34  CO2	 Delta_V -23.19 cm3/mol
	H2(g)           -31.14    -34.25   -3.11  H2
	H2O(g)           -1.78*    -0.00    1.78  H2O	 Delta_V  18.03 cm3/mol
	Halite           -9.62*    -8.06    1.56  NaCl	 Delta_V  15.43 cm3/mol
	O2(g)           -24.42*   -27.23   -2.81  O2	 Delta_V  36.06 cm3/mol
	                      *  with Delta_V * (P - 1) / 2.3RT.

-----------------------------------------
Beginning of batch-reaction calculations.
-----------------------------------------

Reaction step 1.

Using solution 1.	
Using pure phase assemblage 1.	

-------------------------------Phase assemblage--------------------------------

                                                      Moles in assemblage
Phase               SI  log IAP  log K(T, P)   Initial       Final       Delta

Calcite           0.00    -8.43     -8.43    1.000e+01   1.000e+01  -2.576e-07

-----------------------------Solution composition------------------------------

	Elements           Molality       Moles

	C                 2.971e-03   2.971e-03
	Ca                1.400e-03   1.400e-03
	Cl                1.000e-04   1.000e-04
	K                 5.000e-05   5.000e-05
	Na                1.000e-04   1.000e-04

----------------------------Description of solution----------------------------

                                       pH  =   7.571      Charge balance
                                       pe  =  11.133      Adjusted to redox equilibrium
       Specific Conductance (uS/cm, 15 oC) = 218
                          Density (g/cm3)  =   0.99934
                        Activity of water  =   1.000
                           Ionic strength  =   4.254e-03
                       Mass of water (kg)  =   1.000e+00
                 Total alkalinity (eq/kg)  =   2.801e-03
                       Total CO2 (mol/kg)  =   2.971e-03
                      Temperature (deg C)  =  15.00
                  Electrical balance (eq)  =   5.000e-05
 Percent error, 100*(Cat-|An|)/(Cat+|An|)  =   0.87
                               Iterations  =  11
                                  Total H  = 1.110152e+02
                                  Total O  = 5.551495e+01

----------------------------Distribution of species----------------------------

                                                   Log       Log         Log 
   Species                 Molality    Activity  Molality  Activity     Gamma

   OH-                    1.799e-07   1.677e-07    -6.745    -6.775    -0.030
   H+                     2.863e-08   2.688e-08    -7.543    -7.571    -0.027
   H2O                    5.551e+01   9.999e-01     1.744    -0.000     0.000
C(-4)            0.000e+00
   CH4                    0.000e+00   0.000e+00  -127.596  -127.596     0.000
C(4)             2.971e-03
   HCO3-                  2.750e-03   2.571e-03    -2.561    -2.590    -0.029
   CO2                    1.810e-04   1.812e-04    -3.742    -3.742     0.000
   CaHCO3+                3.023e-05   2.826e-05    -4.520    -4.549    -0.029
   CaCO3                  5.306e-06   5.311e-06    -5.275    -5.275     0.000
   CO3-2                  4.672e-06   3.567e-06    -5.330    -5.448    -0.117
   NaHCO3                 1.346e-07   1.348e-07    -6.871    -6.870     0.000
   NaCO3-                 3.938e-09   3.674e-09    -8.405    -8.435    -0.030
Ca               1.400e-03
   Ca+2                   1.365e-03   1.041e-03    -2.865    -2.982    -0.117
   CaHCO3+                3.023e-05   2.826e-05    -4.520    -4.549    -0.029
   CaCO3                  5.306e-06   5.311e-06    -5.275    -5.275     0.000
   CaOH+                  6.890e-09   6.430e-09    -8.162    -8.192    -0.030
Cl               1.000e-04
   Cl-                    1.000e-04   9.325e-05    -4.000    -4.030    -0.030
H(0)             0.000e+00
   H2                     0.000e+00   0.000e+00   -40.513   -40.513     0.000
K                5.000e-05
   K+                     5.000e-05   4.662e-05    -4.301    -4.331    -0.030
   KOH                    6.009e-12   6.015e-12   -11.221   -11.221     0.000
Na               1.000e-04
   Na+                    9.986e-05   9.324e-05    -4.001    -4.030    -0.030
   NaHCO3                 1.346e-07   1.348e-07    -6.871    -6.870     0.000
   NaCO3-                 3.938e-09   3.674e-09    -8.405    -8.435    -0.030
   NaOH                   2.290e-11   2.292e-11   -10.640   -10.640     0.000
O(0)             4.046e-15
   O2                     2.023e-15   2.025e-15   -14.694   -14.694     0.000

------------------------------Saturation indices-------------------------------

	Phase               SI   log IAP   log K(288 K,   1 atm)

	Aragonite        -0.15*    -8.43   -8.28  CaCO3	 Delta_V -23.54 cm3/mol
	Calcite           0.00*    -8.43   -8.43  CaCO3	 Delta_V -23.54 cm3/mol
	CH4(g)         -124.82*  -127.60   -2.77  CH4	 Delta_V -59.25 cm3/mol
	CO2(g)           -2.40*    -3.74   -1.34  CO2	 Delta_V -23.19 cm3/mol
	H2(g)           -37.41    -40.51   -3.11  H2
	H2O(g)           -1.78*    -0.00    1.78  H2O	 Delta_V  18.03 cm3/mol
	Halite           -9.62*    -8.06    1.56  NaCl	 Delta_V  15.43 cm3/mol
	O2(g)           -11.88*   -14.69   -2.81  O2	 Delta_V  36.06 cm3/mol
	                      *  with Delta_V * (P - 1) / 2.3RT.

------------------
End of simulation.
------------------

------------------------------------
Reading input data for simulation 3.
------------------------------------

	 SOLUTION 4-21 # Fill flowline with 18% seawater, CEC = 0.20 M
	 units mol/kgw
	 pH 6.80
	 pe 8.0
	 temp 15
	 dens 1.023
	 Ca 4.3790E-03
	 Mg 9.9162E-03
	 Na 87.381E-03
	 K 1.9044E-03
	 Cl 101.84E-03
	 Alkalinity 15.502E-03
	 S(6) 0.2670E-03
	EQUILIBRIUM_PHASES 4-21
	 Calcite
	SAVE solution 4-21
	END
-------------------------------------------
Beginning of initial solution calculations.
-------------------------------------------

Initial solution 4.	

-----------------------------Solution composition------------------------------

	Elements           Molality       Moles

	Alkalinity        1.550e-02   1.550e-02
	Ca                4.379e-03   4.379e-03
	Cl                1.018e-01   1.018e-01
	K                 1.904e-03   1.904e-03
	Mg                9.916e-03   9.916e-03
	Na                8.738e-02   8.738e-02
	S(6)              2.670e-04   2.670e-04

----------------------------Description of solution----------------------------

                                       pH  =   6.800    
                                       pe  =   8.000    
       Specific Conductance (uS/cm, 15 oC) = 9333
                          Density (g/cm3)  =   1.00444
                        Activity of water  =   0.996
                           Ionic strength  =   1.301e-01
                       Mass of water (kg)  =   1.000e+00
                    Total carbon (mol/kg)  =   1.995e-02
                       Total CO2 (mol/kg)  =   1.995e-02
                      Temperature (deg C)  =  15.00
                  Electrical balance (eq)  =  -2.000e-07
 Percent error, 100*(Cat-|An|)/(Cat+|An|)  =  -0.00
                               Iterations  =   8
                                  Total H  = 1.110279e+02
                                  Total O  = 5.556267e+01

----------------------------Distribution of species----------------------------

                                                   Log       Log         Log 
   Species                 Molality    Activity  Molality  Activity     Gamma

   H+                     1.940e-07   1.585e-07    -6.712    -6.800    -0.088
   OH-                    3.804e-08   2.833e-08    -7.420    -7.548    -0.128
   H2O                    5.551e+01   9.962e-01     1.744    -0.002     0.000
C(4)             1.995e-02
   HCO3-                  1.424e-02   1.104e-02    -1.846    -1.957    -0.110
   CO2                    4.473e-03   4.609e-03    -2.349    -2.336     0.013
   MgHCO3+                5.823e-04   4.486e-04    -3.235    -3.348    -0.113
   NaHCO3                 4.039e-04   4.162e-04    -3.394    -3.381     0.013
   CaHCO3+                2.287e-04   1.774e-04    -3.641    -3.751    -0.110
   MgCO3                  7.410e-06   7.635e-06    -5.130    -5.117     0.013
   CO3-2                  7.187e-06   2.598e-06    -5.143    -5.585    -0.442
   CaCO3                  5.486e-06   5.652e-06    -5.261    -5.248     0.013
   NaCO3-                 2.497e-06   1.924e-06    -5.603    -5.716    -0.113
Ca               4.379e-03
   Ca+2                   4.128e-03   1.521e-03    -2.384    -2.818    -0.433
   CaHCO3+                2.287e-04   1.774e-04    -3.641    -3.751    -0.110
   CaSO4                  1.701e-05   1.753e-05    -4.769    -4.756     0.013
   CaCO3                  5.486e-06   5.652e-06    -5.261    -5.248     0.013
   CaOH+                  2.060e-09   1.587e-09    -8.686    -8.799    -0.113
   CaHSO4+                1.888e-11   1.455e-11   -10.724   -10.837    -0.113
Cl               1.018e-01
   Cl-                    1.018e-01   7.619e-02    -0.992    -1.118    -0.126
H(0)             3.826e-33
   H2                     1.913e-33   1.971e-33   -32.718   -32.705     0.013
K                1.904e-03
   K+                     1.904e-03   1.424e-03    -2.720    -2.846    -0.126
   KSO4-                  6.898e-07   5.314e-07    -6.161    -6.275    -0.113
   KOH                    3.012e-11   3.104e-11   -10.521   -10.508     0.013
Mg               9.916e-03
   Mg+2                   9.287e-03   3.591e-03    -2.032    -2.445    -0.413
   MgHCO3+                5.823e-04   4.486e-04    -3.235    -3.348    -0.113
   MgSO4                  3.981e-05   4.102e-05    -4.400    -4.387     0.013
   MgCO3                  7.410e-06   7.635e-06    -5.130    -5.117     0.013
   MgOH+                  4.179e-08   3.219e-08    -7.379    -7.492    -0.113
Na               8.738e-02
   Na+                    8.695e-02   6.701e-02    -1.061    -1.174    -0.113
   NaHCO3                 4.039e-04   4.162e-04    -3.394    -3.381     0.013
   NaSO4-                 2.597e-05   2.001e-05    -4.586    -4.699    -0.113
   NaCO3-                 2.497e-06   1.924e-06    -5.603    -5.716    -0.113
   NaOH                   2.701e-09   2.783e-09    -8.569    -8.555     0.013
O(0)             9.462e-31
   O2                     4.731e-31   4.875e-31   -30.325   -30.312     0.013
S(6)             2.670e-04
   SO4-2                  1.835e-04   6.361e-05    -3.736    -4.196    -0.460
   MgSO4                  3.981e-05   4.102e-05    -4.400    -4.387     0.013
   NaSO4-                 2.597e-05   2.001e-05    -4.586    -4.699    -0.113
   CaSO4                  1.701e-05   1.753e-05    -4.769    -4.756     0.013
   KSO4-                  6.898e-07   5.314e-07    -6.161    -6.275    -0.113
   HSO4-                  1.032e-09   7.954e-10    -8.986    -9.099    -0.113
   CaHSO4+                1.888e-11   1.455e-11   -10.724   -10.837    -0.113

------------------------------Saturation indices-------------------------------

	Phase               SI   log IAP   log K(288 K,   1 atm)

	Anhydrite        -2.68*    -7.01   -4.34  CaSO4	 Delta_V  -5.72 cm3/mol
	Aragonite        -0.12*    -8.40   -8.28  CaCO3	 Delta_V -23.54 cm3/mol
	Calcite           0.03*    -8.40   -8.43  CaCO3	 Delta_V -23.54 cm3/mol
	CO2(g)           -1.00*    -2.34   -1.34  CO2	 Delta_V -23.19 cm3/mol
	Dolomite          0.42*   -16.43  -16.85  CaMg(CO3)2	 Delta_V -50.07 cm3/mol
	Gypsum           -2.43*    -7.02   -4.58  CaSO4:2H2O	 Delta_V  30.34 cm3/mol
	H2(g)           -29.60    -32.71   -3.11  H2
	H2O(g)           -1.78*    -0.00    1.78  H2O	 Delta_V  18.03 cm3/mol
	Halite           -3.85*    -2.29    1.56  NaCl	 Delta_V  15.43 cm3/mol
	O2(g)           -27.50*   -30.31   -2.81  O2	 Delta_V  36.06 cm3/mol
	                      *  with Delta_V * (P - 1) / 2.3RT.

-----------------------------------------
Beginning of batch-reaction calculations.
-----------------------------------------

Reaction step 1.

Using solution 4.	
Using pure phase assemblage 4.	

-------------------------------Phase assemblage--------------------------------

                                                      Moles in assemblage
Phase               SI  log IAP  log K(T, P)   Initial       Final       Delta

Calcite          -0.00    -8.43     -8.43    1.000e+01   1.000e+01   9.093e-05

-----------------------------Solution composition------------------------------

	Elements           Molality       Moles

	C                 1.986e-02   1.986e-02
	Ca                4.288e-03   4.288e-03
	Cl                1.018e-01   1.018e-01
	K                 1.904e-03   1.904e-03
	Mg                9.916e-03   9.916e-03
	Na                8.738e-02   8.738e-02
	S                 2.670e-04   2.670e-04

----------------------------Description of solution----------------------------

                                       pH  =   6.786      Charge balance
                                       pe  =  11.773      Adjusted to redox equilibrium
       Specific Conductance (uS/cm, 15 oC) = 9324
                          Density (g/cm3)  =   1.00442
                        Activity of water  =   0.996
                           Ionic strength  =   1.299e-01
                       Mass of water (kg)  =   1.000e+00
                 Total alkalinity (eq/kg)  =   1.532e-02
                       Total CO2 (mol/kg)  =   1.986e-02
                      Temperature (deg C)  =  15.00
                  Electrical balance (eq)  =  -2.000e-07
 Percent error, 100*(Cat-|An|)/(Cat+|An|)  =  -0.00
                               Iterations  =  11
                                  Total H  = 1.110279e+02
                                  Total O  = 5.556240e+01

----------------------------Distribution of species----------------------------

                                                   Log       Log         Log 
   Species                 Molality    Activity  Molality  Activity     Gamma

   H+                     2.001e-07   1.635e-07    -6.699    -6.786    -0.088
   OH-                    3.687e-08   2.746e-08    -7.433    -7.561    -0.128
   H2O                    5.551e+01   9.962e-01     1.744    -0.002     0.000
C(-4)            0.000e+00
   CH4                    0.000e+00   0.000e+00  -125.039  -125.026     0.013
C(4)             1.986e-02
   HCO3-                  1.408e-02   1.092e-02    -1.851    -1.962    -0.110
   CO2                    4.562e-03   4.701e-03    -2.341    -2.328     0.013
   MgHCO3+                5.763e-04   4.440e-04    -3.239    -3.353    -0.113
   NaHCO3                 3.994e-04   4.116e-04    -3.399    -3.386     0.013
   CaHCO3+                2.217e-04   1.719e-04    -3.654    -3.765    -0.110
   MgCO3                  7.110e-06   7.326e-06    -5.148    -5.135     0.013
   CO3-2                  6.884e-06   2.490e-06    -5.162    -5.604    -0.442
   CaCO3                  5.154e-06   5.311e-06    -5.288    -5.275     0.013
   NaCO3-                 2.394e-06   1.844e-06    -5.621    -5.734    -0.113
Ca               4.288e-03
   Ca+2                   4.045e-03   1.491e-03    -2.393    -2.826    -0.433
   CaHCO3+                2.217e-04   1.719e-04    -3.654    -3.765    -0.110
   CaSO4                  1.670e-05   1.721e-05    -4.777    -4.764     0.013
   CaCO3                  5.154e-06   5.311e-06    -5.288    -5.275     0.013
   CaOH+                  1.957e-09   1.508e-09    -8.708    -8.822    -0.113
   CaHSO4+                1.912e-11   1.473e-11   -10.718   -10.832    -0.113
Cl               1.018e-01
   Cl-                    1.018e-01   7.620e-02    -0.992    -1.118    -0.126
H(0)             0.000e+00
   H2                     0.000e+00   0.000e+00   -40.238   -40.225     0.013
K                1.904e-03
   K+                     1.904e-03   1.424e-03    -2.720    -2.846    -0.126
   KSO4-                  6.909e-07   5.323e-07    -6.161    -6.274    -0.113
   KOH                    2.921e-11   3.009e-11   -10.535   -10.522     0.013
Mg               9.916e-03
   Mg+2                   9.293e-03   3.595e-03    -2.032    -2.444    -0.412
   MgHCO3+                5.763e-04   4.440e-04    -3.239    -3.353    -0.113
   MgSO4                  3.991e-05   4.112e-05    -4.399    -4.386     0.013
   MgCO3                  7.110e-06   7.326e-06    -5.148    -5.135     0.013
   MgOH+                  4.054e-08   3.124e-08    -7.392    -7.505    -0.113
Na               8.738e-02
   Na+                    8.695e-02   6.703e-02    -1.061    -1.174    -0.113
   NaHCO3                 3.994e-04   4.116e-04    -3.399    -3.386     0.013
   NaSO4-                 2.601e-05   2.004e-05    -4.585    -4.698    -0.113
   NaCO3-                 2.394e-06   1.844e-06    -5.621    -5.734    -0.113
   NaOH                   2.619e-09   2.698e-09    -8.582    -8.569     0.013
O(0)             1.035e-15
   O2                     5.173e-16   5.330e-16   -15.286   -15.273     0.013
S(-2)            0.000e+00
   H2S                    0.000e+00   0.000e+00  -123.988  -123.975     0.013
   HS-                    0.000e+00   0.000e+00  -124.145  -124.273    -0.128
   S-2                    0.000e+00   0.000e+00  -130.258  -130.713    -0.455
S(6)             2.670e-04
   SO4-2                  1.837e-04   6.370e-05    -3.736    -4.196    -0.460
   MgSO4                  3.991e-05   4.112e-05    -4.399    -4.386     0.013
   NaSO4-                 2.601e-05   2.004e-05    -4.585    -4.698    -0.113
   CaSO4                  1.670e-05   1.721e-05    -4.777    -4.764     0.013
   KSO4-                  6.909e-07   5.323e-07    -6.161    -6.274    -0.113
   HSO4-                  1.067e-09   8.218e-10    -8.972    -9.085    -0.113
   CaHSO4+                1.912e-11   1.473e-11   -10.718   -10.832    -0.113

------------------------------Saturation indices-------------------------------

	Phase               SI   log IAP   log K(288 K,   1 atm)

	Anhydrite        -2.69*    -7.02   -4.34  CaSO4	 Delta_V  -5.72 cm3/mol
	Aragonite        -0.15*    -8.43   -8.28  CaCO3	 Delta_V -23.54 cm3/mol
	Calcite          -0.00*    -8.43   -8.43  CaCO3	 Delta_V -23.54 cm3/mol
	CH4(g)         -122.25*  -125.03   -2.77  CH4	 Delta_V -59.25 cm3/mol
	CO2(g)           -0.99*    -2.33   -1.34  CO2	 Delta_V -23.19 cm3/mol
	Dolomite          0.37*   -16.48  -16.85  CaMg(CO3)2	 Delta_V -50.07 cm3/mol
	Gypsum           -2.44*    -7.03   -4.58  CaSO4:2H2O	 Delta_V  30.34 cm3/mol
	H2(g)           -37.12    -40.22   -3.11  H2
	H2O(g)           -1.78*    -0.00    1.78  H2O	 Delta_V  18.03 cm3/mol
	H2S(g)         -123.09*  -123.98   -0.88  H2S	 Delta_V -59.46 cm3/mol
	Halite           -3.85*    -2.29    1.56  NaCl	 Delta_V  15.43 cm3/mol
	O2(g)           -12.46*   -15.27   -2.81  O2	 Delta_V  36.06 cm3/mol
	Sulfur          -91.98*   -86.86    5.12  S	 Delta_V -59.46 cm3/mol
	                      *  with Delta_V * (P - 1) / 2.3RT.

------------------
End of simulation.
------------------

------------------------------------
Reading input data for simulation 4.
------------------------------------

	EXCHANGE 4-21
	 X 0.2
	 equilibrate 4
	END 
-------------------------------------------------------
Beginning of initial exchange-composition calculations.
-------------------------------------------------------

Exchange 4.	

X                2.000e-01 mol

	                               Equiv-    Equivalent      Log 
	Species             Moles      alents      Fraction     Gamma

	HX                4.573e-02   4.573e-02   2.287e-01    -2.710
	NaX               3.807e-02   3.807e-02   1.904e-01    -0.518
	MgX2              2.838e-02   5.677e-02   2.838e-01    -0.412
	CaX2              2.557e-02   5.115e-02   2.557e-01    -0.433
	KX                8.281e-03   8.281e-03   4.141e-02    -0.126

------------------
End of simulation.
------------------

------------------------------------
Reading input data for simulation 5.
------------------------------------

	MIX	13	
		11	0.9	
		13	0.1
	MIX	14	
		13	0.8	
		14	0.2
	MIX	15	
		14	0.7	
		15	0.3
	MIX	16	
		15	0.6	
		16	0.4
	MIX	17	
		16	0.5	
		17	0.5
	MIX	18	
		17	0.4	
		18	0.6
	MIX	19	
		18	0.3	
		19	0.7
	MIX	20	
		19	0.2	
		20	0.8
	MIX	21	
		20	0.1	
		21	0.9
	END
-----------------------------------------
Beginning of batch-reaction calculations.
-----------------------------------------

Reaction step 1.

Using mix 13.	

Mixture 13.	

	  9.000e-01 Solution 11	Solution after simulation 3.                           
	  1.000e-01 Solution 13	Solution after simulation 3.                           

-----------------------------Solution composition------------------------------

	Elements           Molality       Moles

	C                 1.986e-02   1.986e-02
	Ca                4.288e-03   4.288e-03
	Cl                1.018e-01   1.018e-01
	K                 1.904e-03   1.904e-03
	Mg                9.916e-03   9.916e-03
	Na                8.738e-02   8.738e-02
	S                 2.670e-04   2.670e-04

----------------------------Description of solution----------------------------

                                       pH  =   6.786      Charge balance
                                       pe  =  11.773      Adjusted to redox equilibrium
       Specific Conductance (uS/cm, 15 oC) = 9324
                          Density (g/cm3)  =   1.00442
                        Activity of water  =   0.996
                           Ionic strength  =   1.299e-01
                       Mass of water (kg)  =   1.000e+00
                 Total alkalinity (eq/kg)  =   1.532e-02
                       Total CO2 (mol/kg)  =   1.986e-02
                      Temperature (deg C)  =  15.00
                  Electrical balance (eq)  =  -2.000e-07
 Percent error, 100*(Cat-|An|)/(Cat+|An|)  =  -0.00
                               Iterations  =   0
                                  Total H  = 1.110279e+02
                                  Total O  = 5.556240e+01

----------------------------Distribution of species----------------------------

                                                   Log       Log         Log 
   Species                 Molality    Activity  Molality  Activity     Gamma

   H+                     2.001e-07   1.635e-07    -6.699    -6.786    -0.088
   OH-                    3.687e-08   2.746e-08    -7.433    -7.561    -0.128
   H2O                    5.551e+01   9.962e-01     1.744    -0.002     0.000
C(-4)            0.000e+00
   CH4                    0.000e+00   0.000e+00  -125.039  -125.026     0.013
C(4)             1.986e-02
   HCO3-                  1.408e-02   1.092e-02    -1.851    -1.962    -0.110
   CO2                    4.562e-03   4.701e-03    -2.341    -2.328     0.013
   MgHCO3+                5.763e-04   4.440e-04    -3.239    -3.353    -0.113
   NaHCO3                 3.994e-04   4.116e-04    -3.399    -3.386     0.013
   CaHCO3+                2.217e-04   1.719e-04    -3.654    -3.765    -0.110
   MgCO3                  7.110e-06   7.326e-06    -5.148    -5.135     0.013
   CO3-2                  6.884e-06   2.490e-06    -5.162    -5.604    -0.442
   CaCO3                  5.154e-06   5.311e-06    -5.288    -5.275     0.013
   NaCO3-                 2.394e-06   1.844e-06    -5.621    -5.734    -0.113
Ca               4.288e-03
   Ca+2                   4.045e-03   1.491e-03    -2.393    -2.826    -0.433
   CaHCO3+                2.217e-04   1.719e-04    -3.654    -3.765    -0.110
   CaSO4                  1.670e-05   1.721e-05    -4.777    -4.764     0.013
   CaCO3                  5.154e-06   5.311e-06    -5.288    -5.275     0.013
   CaOH+                  1.957e-09   1.508e-09    -8.708    -8.822    -0.113
   CaHSO4+                1.912e-11   1.473e-11   -10.718   -10.832    -0.113
Cl               1.018e-01
   Cl-                    1.018e-01   7.620e-02    -0.992    -1.118    -0.126
H(0)             0.000e+00
   H2                     0.000e+00   0.000e+00   -40.238   -40.225     0.013
K                1.904e-03
   K+                     1.904e-03   1.424e-03    -2.720    -2.846    -0.126
   KSO4-                  6.909e-07   5.323e-07    -6.161    -6.274    -0.113
   KOH                    2.921e-11   3.009e-11   -10.535   -10.522     0.013
Mg               9.916e-03
   Mg+2                   9.293e-03   3.595e-03    -2.032    -2.444    -0.412
   MgHCO3+                5.763e-04   4.440e-04    -3.239    -3.353    -0.113
   MgSO4                  3.991e-05   4.112e-05    -4.399    -4.386     0.013
   MgCO3                  7.110e-06   7.326e-06    -5.148    -5.135     0.013
   MgOH+                  4.054e-08   3.124e-08    -7.392    -7.505    -0.113
Na               8.738e-02
   Na+                    8.695e-02   6.703e-02    -1.061    -1.174    -0.113
   NaHCO3                 3.994e-04   4.116e-04    -3.399    -3.386     0.013
   NaSO4-                 2.601e-05   2.004e-05    -4.585    -4.698    -0.113
   NaCO3-                 2.394e-06   1.844e-06    -5.621    -5.734    -0.113
   NaOH                   2.619e-09   2.698e-09    -8.582    -8.569     0.013
O(0)             1.035e-15
   O2                     5.173e-16   5.330e-16   -15.286   -15.273     0.013
S(-2)            0.000e+00
   H2S                    0.000e+00   0.000e+00  -123.988  -123.975     0.013
   HS-                    0.000e+00   0.000e+00  -124.145  -124.273    -0.128
   S-2                    0.000e+00   0.000e+00  -130.258  -130.713    -0.455
S(6)             2.670e-04
   SO4-2                  1.837e-04   6.370e-05    -3.736    -4.196    -0.460
   MgSO4                  3.991e-05   4.112e-05    -4.399    -4.386     0.013
   NaSO4-                 2.601e-05   2.004e-05    -4.585    -4.698    -0.113
   CaSO4                  1.670e-05   1.721e-05    -4.777    -4.764     0.013
   KSO4-                  6.909e-07   5.323e-07    -6.161    -6.274    -0.113
   HSO4-                  1.067e-09   8.218e-10    -8.972    -9.085    -0.113
   CaHSO4+                1.912e-11   1.473e-11   -10.718   -10.832    -0.113

------------------------------Saturation indices-------------------------------

	Phase               SI   log IAP   log K(288 K,   1 atm)

	Anhydrite        -2.69*    -7.02   -4.34  CaSO4	 Delta_V  -5.72 cm3/mol
	Aragonite        -0.15*    -8.43   -8.28  CaCO3	 Delta_V -23.54 cm3/mol
	Calcite          -0.00*    -8.43   -8.43  CaCO3	 Delta_V -23.54 cm3/mol
	CH4(g)         -122.25*  -125.03   -2.77  CH4	 Delta_V -59.25 cm3/mol
	CO2(g)           -0.99*    -2.33   -1.34  CO2	 Delta_V -23.19 cm3/mol
	Dolomite          0.37*   -16.48  -16.85  CaMg(CO3)2	 Delta_V -50.07 cm3/mol
	Gypsum           -2.44*    -7.03   -4.58  CaSO4:2H2O	 Delta_V  30.34 cm3/mol
	H2(g)           -37.12    -40.22   -3.11  H2
	H2O(g)           -1.78*    -0.00    1.78  H2O	 Delta_V  18.03 cm3/mol
	H2S(g)         -123.09*  -123.98   -0.88  H2S	 Delta_V -59.46 cm3/mol
	Halite           -3.85*    -2.29    1.56  NaCl	 Delta_V  15.43 cm3/mol
	O2(g)           -12.46*   -15.27   -2.81  O2	 Delta_V  36.06 cm3/mol
	Sulfur          -91.98*   -86.86    5.12  S	 Delta_V -59.46 cm3/mol
	                      *  with Delta_V * (P - 1) / 2.3RT.

------------------
End of simulation.
------------------

------------------------------------
Reading input data for simulation 6.
------------------------------------

	PRINT
	 reset false
WARNING: Cell-lengths were read for 1 cells. Last value is used till cell 11.
WARNING: Dispersivities were read for 1 cells. Last value is used till cell 11.
WARNING: Maximum iterations exceeded, 100

WARNING: Numerical method failed with this set of convergence parameters.

WARNING: Trying smaller step size, pe step size 10, 5 ... 

WARNING: Maximum iterations exceeded, 100

WARNING: Numerical method failed with this set of convergence parameters.

WARNING: Trying smaller step size, pe step size 10, 5 ... 

WARNING: Maximum iterations exceeded, 100

WARNING: Numerical method failed with this set of convergence parameters.

WARNING: Trying smaller step size, pe step size 10, 5 ... 

WARNING: Maximum iterations exceeded, 100

WARNING: Numerical method failed with this set of convergence parameters.

WARNING: Trying smaller step size, pe step size 10, 5 ... 

WARNING: Maximum iterations exceeded, 100

WARNING: Numerical method failed with this set of convergence parameters.

WARNING: Trying smaller step size, pe step size 10, 5 ... 

WARNING: Maximum iterations exceeded, 100

WARNING: Numerical method failed with this set of convergence parameters.

WARNING: Trying smaller step size, pe step size 10, 5 ... 

WARNING: Maximum iterations exceeded, 100

WARNING: Numerical method failed with this set of convergence parameters.

WARNING: Trying smaller step size, pe step size 10, 5 ... 

WARNING: Maximum iterations exceeded, 100

WARNING: Numerical method failed with this set of convergence parameters.

WARNING: Trying smaller step size, pe step size 10, 5 ... 

WARNING: Maximum iterations exceeded, 100

WARNING: Numerical method failed with this set of convergence parameters.

WARNING: Trying smaller step size, pe step size 10, 5 ... 

WARNING: Maximum iterations exceeded, 100

WARNING: Numerical method failed with this set of convergence parameters.

WARNING: Trying smaller step size, pe step size 10, 5 ... 

WARNING: Maximum iterations exceeded, 100

WARNING: Numerical method failed with this set of convergence parameters.

WARNING: Trying smaller step size, pe step size 10, 5 ... 

WARNING: Maximum iterations exceeded, 100

WARNING: Numerical method failed with this set of convergence parameters.

WARNING: Trying smaller step size, pe step size 10, 5 ... 

WARNING: Maximum iterations exceeded, 100

WARNING: Numerical method failed with this set of convergence parameters.

WARNING: Trying smaller step size, pe step size 10, 5 ... 

WARNING: Maximum iterations exceeded, 100

WARNING: Numerical method failed with this set of convergence parameters.

WARNING: Trying smaller step size, pe step size 10, 5 ... 

WARNING: Maximum iterations exceeded, 100

WARNING: Numerical method failed with this set of convergence parameters.

WARNING: Trying smaller step size, pe step size 10, 5 ... 

WARNING: Maximum iterations exceeded, 100

WARNING: Numerical method failed with this set of convergence parameters.

WARNING: Trying smaller step size, pe step size 10, 5 ... 

WARNING: Maximum iterations exceeded, 100

WARNING: Numerical method failed with this set of convergence parameters.

WARNING: Trying smaller step size, pe step size 10, 5 ... 

WARNING: Maximum iterations exceeded, 100

WARNING: Numerical method failed with this set of convergence parameters.

WARNING: Trying smaller step size, pe step size 10, 5 ... 

WARNING: Maximum iterations exceeded, 100

WARNING: Numerical method failed with this set of convergence parameters.

WARNING: Trying smaller step size, pe step size 10, 5 ... 

WARNING: Maximum iterations exceeded, 100

WARNING: Numerical method failed with this set of convergence parameters.

WARNING: Trying smaller step size, pe step size 10, 5 ... 

WARNING: Maximum iterations exceeded, 100

WARNING: Numerical method failed with this set of convergence parameters.

WARNING: Trying smaller step size, pe step size 10, 5 ... 

WARNING: Maximum iterations exceeded, 100

WARNING: Numerical method failed with this set of convergence parameters.

WARNING: Trying smaller step size, pe step size 10, 5 ... 

WARNING: Maximum iterations exceeded, 100

WARNING: Numerical method failed with this set of convergence parameters.

WARNING: Trying smaller step size, pe step size 10, 5 ... 

WARNING: Maximum iterations exceeded, 100

WARNING: Numerical method failed with this set of convergence parameters.

WARNING: Trying smaller step size, pe step size 10, 5 ... 

WARNING: Maximum iterations exceeded, 100

WARNING: Numerical method failed with this set of convergence parameters.

WARNING: Trying smaller step size, pe step size 10, 5 ... 

WARNING: Maximum iterations exceeded, 100

WARNING: Numerical method failed with this set of convergence parameters.

WARNING: Trying smaller step size, pe step size 10, 5 ... 

WARNING: Maximum iterations exceeded, 100

WARNING: Numerical method failed with this set of convergence parameters.

WARNING: Trying smaller step size, pe step size 10, 5 ... 

WARNING: Maximum iterations exceeded, 100

WARNING: Numerical method failed with this set of convergence parameters.

WARNING: Trying smaller step size, pe step size 10, 5 ... 

WARNING: Maximum iterations exceeded, 100

WARNING: Numerical method failed with this set of convergence parameters.

WARNING: Trying smaller step size, pe step size 10, 5 ... 

WARNING: Maximum iterations exceeded, 100

WARNING: Numerical method failed with this set of convergence parameters.

WARNING: Trying smaller step size, pe step size 10, 5 ... 

WARNING: Maximum iterations exceeded, 100

WARNING: Numerical method failed with this set of convergence parameters.

WARNING: Trying smaller step size, pe step size 10, 5 ... 

WARNING: Maximum iterations exceeded, 100

WARNING: Numerical method failed with this set of convergence parameters.

WARNING: Trying smaller step size, pe step size 10, 5 ... 

WARNING: Maximum iterations exceeded, 100

WARNING: Numerical method failed with this set of convergence parameters.

