   Input file: As
  Output file: As.out
Database file: ../database/wateq4f.dat

------------------
Reading data base.
------------------

	SOLUTION_MASTER_SPECIES
	SOLUTION_SPECIES
	PHASES
	EXCHANGE_MASTER_SPECIES
	EXCHANGE_SPECIES
	SURFACE_MASTER_SPECIES
	SURFACE_SPECIES
	RATES
	END
------------------------------------
Reading input data for simulation 1.
------------------------------------

	DATABASE ../database/wateq4f.dat
	SOLUTION 1
	PHASES
	As-pyrite
	   FeAs0.004S1.996 + 1.984H+ + 0.012H2O +  1.98e- = Fe+2 + 0.004H3AsO3 + 1.996HS-
	   log_k      -18.479
	   delta_h   11.3 kcal
	EQUILIBRIUM_PHASES 1
	   As-pyrite
	   Calcite
	   Goethite   3.   0.0            # Initially, there is no goethite
	SAVE solution 1
	END
-------------------------------------------
Beginning of initial solution calculations.
-------------------------------------------

Initial solution 1.	

-----------------------------Solution composition------------------------------

	Elements           Molality       Moles

	Pure water     

----------------------------Description of solution----------------------------

                                       pH  =   7.000    
                                       pe  =   4.000    
                        Activity of water  =   1.000
                           Ionic strength  =   1.001e-07
                       Mass of water (kg)  =   1.000e+00
                 Total alkalinity (eq/kg)  =   1.082e-10
                    Total carbon (mol/kg)  =   0.000e+00
                       Total CO2 (mol/kg)  =   0.000e+00
                      Temperature (deg C)  =  25.00
                  Electrical balance (eq)  =  -1.082e-10
 Percent error, 100*(Cat-|An|)/(Cat+|An|)  =  -0.05
                               Iterations  =   0
                                  Total H  = 1.110124e+02
                                  Total O  = 5.550622e+01

----------------------------Distribution of species----------------------------

                                               Log       Log       Log    mole V
   Species          Molality    Activity  Molality  Activity     Gamma   cm3/mol

   OH-             1.002e-07   1.001e-07    -6.999    -6.999    -0.000     (0)  
   H+              1.001e-07   1.000e-07    -7.000    -7.000    -0.000      0.00
   H2O             5.551e+01   1.000e+00     1.744     0.000     0.000     18.07
H(0)          1.416e-25
   H2              7.079e-26   7.079e-26   -25.150   -25.150     0.000     (0)  
O(0)          0.000e+00
   O2              0.000e+00   0.000e+00   -42.080   -42.080     0.000     (0)  

------------------------------Saturation indices-------------------------------

	Phase               SI   log IAP   log K(298 K,   1 atm)

	H2(g)           -22.00    -25.15   -3.15  H2
	H2O(g)           -1.51      0.00    1.51  H2O
	O2(g)           -39.19    -42.08   -2.89  O2


-----------------------------------------
Beginning of batch-reaction calculations.
-----------------------------------------

Reaction step 1.

Using solution 1.	
Using pure phase assemblage 1.	

-------------------------------Phase assemblage--------------------------------

                                                      Moles in assemblage
Phase               SI  log IAP  log K(T, P)   Initial       Final       Delta

As-pyrite         0.00   -18.48    -18.48    1.000e+01   1.000e+01  -6.546e-08
Calcite          -0.00    -8.48     -8.48    1.000e+01   1.000e+01  -1.227e-04
Goethite          2.99     1.99     -1.00    0.000e+00           0   0.000e+00

-----------------------------Solution composition------------------------------

	Elements           Molality       Moles

	As                2.618e-10   2.618e-10
	C                 1.227e-04   1.227e-04
	Ca                1.227e-04   1.227e-04
	Fe                6.546e-08   6.546e-08
	S                 1.307e-07   1.307e-07

----------------------------Description of solution----------------------------

                                       pH  =   9.910      Charge balance
                                       pe  =  -6.864      Adjusted to redox equilibrium
                        Activity of water  =   1.000
                           Ionic strength  =   3.850e-04
                       Mass of water (kg)  =   1.000e+00
                 Total alkalinity (eq/kg)  =   2.455e-04
                       Total CO2 (mol/kg)  =   1.227e-04
                      Temperature (deg C)  =  25.00
                  Electrical balance (eq)  =  -1.082e-10
 Percent error, 100*(Cat-|An|)/(Cat+|An|)  =  -0.00
                               Iterations  =  18
                                  Total H  = 1.110124e+02
                                  Total O  = 5.550658e+01

----------------------------Distribution of species----------------------------

                                               Log       Log       Log    mole V
   Species          Molality    Activity  Molality  Activity     Gamma   cm3/mol

   OH-             8.319e-05   8.134e-05    -4.080    -4.090    -0.010     (0)  
   H+              1.258e-10   1.231e-10    -9.900    -9.910    -0.009      0.00
   H2O             5.551e+01   1.000e+00     1.744    -0.000     0.000     18.07
As(3)         2.618e-10
   H2AsO3-         2.237e-10   2.188e-10    -9.650    -9.660    -0.010     (0)  
   H3AsO3          3.803e-11   3.803e-11   -10.420   -10.420     0.000     (0)  
   HAsO3-2         3.880e-15   3.547e-15   -14.411   -14.450    -0.039     (0)  
   AsS(OH)(HS)-    1.087e-19   1.063e-19   -18.964   -18.974    -0.010     (0)  
   AsO3-3          7.038e-21   5.750e-21   -20.153   -20.240    -0.088     (0)  
   H4AsO3+         2.372e-21   2.319e-21   -20.625   -20.635    -0.010     (0)  
   As3S4(HS)2-     0.000e+00   0.000e+00   -58.531   -58.540    -0.010     (0)  
As(5)         5.358e-14
   HAsO4-2         5.243e-14   4.792e-14   -13.280   -13.319    -0.039     (0)  
   AsO4-3          1.067e-15   8.717e-16   -14.972   -15.060    -0.088     (0)  
   H2AsO4-         8.718e-17   8.525e-17   -16.060   -16.069    -0.010     (0)  
   H3AsO4          2.093e-24   2.093e-24   -23.679   -23.679     0.000     (0)  
C(-4)         2.397e-08
   CH4             2.397e-08   2.397e-08    -7.620    -7.620     0.000     (0)  
C(4)          1.227e-04
   HCO3-           8.313e-05   8.130e-05    -4.080    -4.090    -0.010     (0)  
   CO3-2           3.386e-05   3.098e-05    -4.470    -4.509    -0.039     (0)  
   CaCO3           5.549e-06   5.550e-06    -5.256    -5.256     0.000     (0)  
   CaHCO3+         1.134e-07   1.109e-07    -6.945    -6.955    -0.010     (0)  
   CO2             2.249e-08   2.250e-08    -7.648    -7.648     0.000     (0)  
   FeCO3           1.030e-08   1.030e-08    -7.987    -7.987     0.000     (0)  
   FeHCO3+         1.153e-10   1.127e-10    -9.938    -9.948    -0.010     (0)  
Ca            1.227e-04
   Ca+2            1.169e-04   1.069e-04    -3.932    -3.971    -0.039     (0)  
   CaCO3           5.549e-06   5.550e-06    -5.256    -5.256     0.000     (0)  
   CaOH+           1.475e-07   1.442e-07    -6.831    -6.841    -0.010     (0)  
   CaHCO3+         1.134e-07   1.109e-07    -6.945    -6.955    -0.010     (0)  
   CaSO4           3.617e-10   3.617e-10    -9.442    -9.442     0.000     (0)  
   CaHSO4+         2.667e-19   2.608e-19   -18.574   -18.584    -0.010     (0)  
Fe(2)         6.523e-08
   FeOH+           3.643e-08   3.562e-08    -7.439    -7.448    -0.010     (0)  
   Fe+2            1.516e-08   1.386e-08    -7.819    -7.858    -0.039     (0)  
   FeCO3           1.030e-08   1.030e-08    -7.987    -7.987     0.000     (0)  
   Fe(OH)2         2.463e-09   2.463e-09    -8.609    -8.609     0.000     (0)  
   Fe(OH)3-        7.605e-10   7.436e-10    -9.119    -9.129    -0.010     (0)  
   FeHCO3+         1.153e-10   1.127e-10    -9.938    -9.948    -0.010     (0)  
   FeSO4           4.179e-14   4.179e-14   -13.379   -13.379     0.000     (0)  
   Fe(HS)2         2.570e-16   2.570e-16   -15.590   -15.590     0.000     (0)  
   Fe(HS)3-        1.305e-22   1.276e-22   -21.884   -21.894    -0.010     (0)  
   FeHSO4+         3.458e-23   3.381e-23   -22.461   -22.471    -0.010     (0)  
Fe(3)         2.292e-10
   Fe(OH)4-        2.025e-10   1.980e-10    -9.694    -9.703    -0.010     (0)  
   Fe(OH)3         2.672e-11   2.672e-11   -10.573   -10.573     0.000     (0)  
   Fe(OH)2+        2.611e-14   2.553e-14   -13.583   -13.593    -0.010     (0)  
   FeOH+2          1.038e-20   9.488e-21   -19.984   -20.023    -0.039     (0)  
   Fe+3            2.214e-28   1.808e-28   -27.655   -27.743    -0.088     (0)  
   FeSO4+          3.439e-32   3.362e-32   -31.464   -31.473    -0.010     (0)  
   Fe(SO4)2-       1.275e-38   1.247e-38   -37.894   -37.904    -0.010     (0)  
   Fe2(OH)2+4      3.471e-39   2.423e-39   -38.460   -38.616    -0.156     (0)  
   FeHSO4+2        0.000e+00   0.000e+00   -40.916   -40.955    -0.039     (0)  
   Fe3(OH)4+5      0.000e+00   0.000e+00   -49.645   -49.889    -0.244     (0)  
H(0)          1.149e-09
   H2              5.745e-10   5.745e-10    -9.241    -9.241     0.000     (0)  
O(0)          0.000e+00
   O2              0.000e+00   0.000e+00   -73.899   -73.899     0.000     (0)  
S(-2)         1.118e-07
   S5-2            1.026e-08   9.416e-09    -7.989    -8.026    -0.037     (0)  
   S4-2            5.991e-09   5.494e-09    -8.223    -8.260    -0.038     (0)  
   S6-2            5.304e-09   4.874e-09    -8.275    -8.312    -0.037     (0)  
   HS-             4.664e-09   4.561e-09    -8.331    -8.341    -0.010     (0)  
   H2S             4.907e-12   4.908e-12   -11.309   -11.309     0.000     (0)  
   S-2             4.897e-12   4.476e-12   -11.310   -11.349    -0.039     (0)  
   S3-2            2.113e-12   1.936e-12   -11.675   -11.713    -0.038     (0)  
   S2-2            1.200e-13   1.099e-13   -12.921   -12.959    -0.038     (0)  
   Fe(HS)2         2.570e-16   2.570e-16   -15.590   -15.590     0.000     (0)  
   AsS(OH)(HS)-    1.087e-19   1.063e-19   -18.964   -18.974    -0.010     (0)  
   Fe(HS)3-        1.305e-22   1.276e-22   -21.884   -21.894    -0.010     (0)  
   As3S4(HS)2-     0.000e+00   0.000e+00   -58.531   -58.540    -0.010     (0)  
S(6)          1.890e-08
   SO4-2           1.854e-08   1.696e-08    -7.732    -7.771    -0.039     (0)  
   CaSO4           3.617e-10   3.617e-10    -9.442    -9.442     0.000     (0)  
   FeSO4           4.179e-14   4.179e-14   -13.379   -13.379     0.000     (0)  
   HSO4-           2.075e-16   2.029e-16   -15.683   -15.693    -0.010     (0)  
   CaHSO4+         2.667e-19   2.608e-19   -18.574   -18.584    -0.010     (0)  
   FeHSO4+         3.458e-23   3.381e-23   -22.461   -22.471    -0.010     (0)  
   FeSO4+          3.439e-32   3.362e-32   -31.464   -31.473    -0.010     (0)  
   Fe(SO4)2-       1.275e-38   1.247e-38   -37.894   -37.904    -0.010     (0)  
   FeHSO4+2        0.000e+00   0.000e+00   -40.916   -40.955    -0.039     (0)  

------------------------------Saturation indices-------------------------------

	Phase               SI   log IAP   log K(298 K,   1 atm)

	Anhydrite        -7.38    -11.74   -4.36  CaSO4
	Aragonite        -0.14     -8.48   -8.34  CaCO3
	Arsenolite      -19.46    -20.84   -1.38  As2O3
	As-pyrite         0.00    -18.48  -18.48  FeAs0.004S1.996
	As2O5(cr)       -55.59    -47.36    8.23  As2O5
	As2S3(am)       -30.69    -75.59  -44.90  As2S3
	As_native        -7.02    -19.56  -12.53  As
	Ca3(AsO4)2:4w   -23.13    -42.03  -18.91  Ca3(AsO4)2:4H2O
	Calcite          -0.00     -8.48   -8.48  CaCO3
	CH4(g)           -4.76     -7.62   -2.86  CH4
	Claudetite      -19.50    -20.84   -1.34  As2O3
	CO2(g)           -6.18     -7.65   -1.47  CO2
	Fe(OH)3(a)       -2.90      1.99    4.89  Fe(OH)3
	Fe3(OH)8         -4.29     15.94   20.22  Fe3(OH)8
	FeS(ppt)         -2.37     -6.29   -3.92  FeS
	Goethite          2.99      1.99   -1.00  FeOOH
	Greigite        -12.03    -57.07  -45.03  Fe3S4
	Gypsum           -7.16    -11.74   -4.58  CaSO4:2H2O
	H2(g)            -6.09     -9.24   -3.15  H2
	H2O(g)           -1.51     -0.00    1.51  H2O
	H2S(g)          -10.31    -11.31   -1.00  H2S
	Hematite          7.98      3.97   -4.01  Fe2O3
	JarositeH       -43.83    -49.22   -5.39  (H3O)Fe3(SO4)2(OH)6
	Mackinawite      -1.64     -6.29   -4.65  FeS
	Maghemite        -2.41      3.97    6.39  Fe2O3
	Magnetite        12.20     15.94    3.74  Fe3O4
	Melanterite     -13.42    -15.63   -2.21  FeSO4:7H2O
	O2(g)           -71.01    -73.90   -2.89  O2
	Orpiment        -29.29    -75.59  -46.30  As2S3
	Portlandite      -6.95     15.85   22.80  Ca(OH)2
	Pyrite            0.03    -18.45  -18.48  FeS2
	Realgar         -11.77    -31.72  -19.94  AsS
	Scorodite       -22.55    -42.80  -20.25  FeAsO4:2H2O
	Siderite         -1.48    -12.37  -10.89  FeCO3
	Siderite(d)(3)   -1.92    -12.37  -10.45  FeCO3
	Sulfur          -10.05    -25.08  -15.03  S


------------------
End of simulation.
------------------

------------------------------------
Reading input data for simulation 2.
------------------------------------

	USE solution 1
	USE equilibrium_phases 1
	REACTION 1
	   O2 1 #.............................. # Indicate the O2 oxidation reaction
	   5e-3 in 5# .............................. # 5 mmol in 5 steps
	SURFACE 1
	   Hfo_wOH            Goethite   0.1         5.28e4
	   equilibrate   1
	USER_PRINT
	10 as5s = surf("As(5)", "Hfo")
	15 PRINT "As(5) sorbed: ", as5s
	20 as3s = surf("As(3)", "Hfo")
	25 PRINT "As(3) sorbed: ", as3s
	30 ass = surf ("As", "Hfo")
	35 PRINT "As sorbed:    ", ass
	40 hfo_w = surf ("Hfo_w", "Hfo")
	45 PRINT "SURF(Hfo_w, Hfo): ", hfo_w, TOT("Hfo_w")
	50 hfo = surf ("Hfo", "Hfo")
	55 PRINT "SURF(Hfo, Hfo):   ", hfo
	USER_GRAPH
	-head mmol_O2 ug_As/L Kd pH Goethite Fe+2*1e4 As(5)_sorbed #f_As(3)*10 Kd_SO4*1e4 Hfo_wOH2+*1e6
	-axis_titles "added O2 / mmol" "ug/L or Kd" "pH"
	-init false
	 10 as3s = mol("Hfo_wH2AsO3")
	 20 as5s = surf("As", "Hfo")  # <=== this one doesn't work if Hfo is coupled
	 30 as3 = tot("As(3)")
	 40 as5 = tot("As(5)")
	 50 go = equi("Goethite")
	 60 graph_x step_no   # reaction step_number, here equals added mmol O2
	 70 Ast = tot("As")
	 80 graph_y Ast * 74.92e6
	 90 if step_no > 0 then graph_y (as3s+as5s) / Ast
	 100 graph_sy -log10(act("H+"))
	 110 graph_y go*1e4, tot("Fe(2)") * 1e4, as5s *1e6
	END
------------------------------------------------------
Beginning of initial surface-composition calculations.
------------------------------------------------------

Surface 1.	

Hfo           
	 -8.199e-35  Surface charge, eq
	undefined  sigma, C/m**2
	  0.000e+00  psi, V
	 -0.000e+00  -F*psi/RT
	  1.000e+00  exp(-F*psi/RT)
	  5.280e+04  specific area, m**2/mol Goethite
	  0.000e+00  m**2 for   0.000e+00 moles of Goethite


Hfo_w         
	  0.000e+00  moles	[0.1 mol/(mol Goethite)]
	                                   Mole                     Log
	Species               Moles    Fraction    Molality    Molality

	Hfo_wO-           9.546e-35       0.000   9.546e-35     -34.020
	Hfo_wOFeOH        2.579e-35       0.000   2.579e-35     -34.589
	Hfo_wOCa+         1.227e-35       0.000   1.227e-35     -34.911
	Hfo_wOH           1.000e-35       0.000   1.000e-35     -35.000
	Hfo_wOFe+         1.179e-36       0.000   1.179e-36     -35.928
	Hfo_wOH2+         2.400e-38       0.000   2.400e-38     -37.620
	Hfo_wOHAsO4-3     3.314e-40       0.000   3.314e-40     -39.480
	Hfo_wH2AsO3       9.776e-41       0.000   9.776e-41     -40.010
	Hfo_wOHSO4-2      1.045e-42       0.000   1.045e-42     -41.981
	Hfo_wSO4-         1.257e-45       0.000   1.257e-45     -44.901
	Hfo_wHAsO4-       4.273e-47       0.000   4.273e-47     -46.369
	Hfo_wH2AsO4       3.318e-51       0.000   3.318e-51     -50.479

-----------------------------------------
Beginning of batch-reaction calculations.
-----------------------------------------

Reaction step 1.

Using solution 1.	Solution after simulation 1.
Using surface 1.	
Using pure phase assemblage 1.	
Using reaction 1.	

Reaction 1.	

	  1.000e-03 moles of the following reaction have been added:

	                 Relative
	Reactant            moles

	O2                   1.00000

	                 Relative
	Element             moles
	O                    2.00000

----------------------------------User print-----------------------------------

As(5) sorbed:    1.5627e-08 
As(3) sorbed:    7.8903e-07 
As sorbed:       8.0466e-07 
SURF(Hfo_w, Hfo):    2.4962e-05   2.4963e-05 
SURF(Hfo, Hfo):      2.4962e-05 

-------------------------------Phase assemblage--------------------------------

                                                      Moles in assemblage
Phase               SI  log IAP  log K(T, P)   Initial       Final       Delta

As-pyrite        -0.00   -18.48    -18.48    1.000e+01   1.000e+01  -2.680e-04
Calcite           0.00    -8.48     -8.48    1.000e+01   9.999e+00  -9.156e-04
Goethite          3.00     2.00     -1.00    0.000e+00   2.496e-04   2.496e-04

------------------------------Surface composition------------------------------

Hfo           
	  4.938e-07  Surface charge, eq
	  3.615e-03  sigma, C/m**2
	  2.594e-02  psi, V
	 -1.010e+00  -F*psi/RT
	  3.643e-01  exp(-F*psi/RT)
	  5.280e+04  specific area, m**2/mol Goethite
	  1.318e+01  m**2 for   2.496e-04 moles of Goethite


Hfo_w         
	  2.496e-05  moles	[0.1 mol/(mol Goethite)]
	                                   Mole                     Log
	Species               Moles    Fraction    Molality    Molality

	Hfo_wOH           1.232e-05       0.494   1.232e-05      -4.909
	Hfo_wO-           3.985e-06       0.160   3.985e-06      -5.400
	Hfo_wOFe+         3.607e-06       0.145   3.607e-06      -5.443
	Hfo_wOFeOH        2.672e-06       0.107   2.672e-06      -5.573
	Hfo_wOH2+         8.728e-07       0.035   8.728e-07      -6.059
	Hfo_wH2AsO3       7.890e-07       0.032   7.890e-07      -6.103
	Hfo_wOCa+         4.790e-07       0.019   4.791e-07      -6.320
	Hfo_wOHSO4-2      2.130e-07       0.009   2.131e-07      -6.672
	Hfo_wOHAsO4-3     1.563e-08       0.001   1.563e-08      -7.806
	Hfo_wSO4-         7.564e-09       0.000   7.564e-09      -8.121
	Hfo_wHAsO4-       1.755e-12       0.000   1.755e-12     -11.756
	Hfo_wH2AsO4       4.024e-15       0.000   4.024e-15     -14.395

-----------------------------Solution composition------------------------------

	Elements           Molality       Moles

	As                2.678e-07   2.678e-07
	C                 1.038e-03   1.038e-03
	Ca                1.038e-03   1.038e-03
	Fe                1.221e-05   1.221e-05
	S                 5.349e-04   5.349e-04

----------------------------Description of solution----------------------------

                                       pH  =   8.001      Charge balance
                                       pe  =  -3.867      Adjusted to redox equilibrium
                        Activity of water  =   1.000
                           Ionic strength  =   3.425e-03
                       Mass of water (kg)  =   1.000e+00
                 Total alkalinity (eq/kg)  =   1.031e-03
                       Total CO2 (mol/kg)  =   1.038e-03
                      Temperature (deg C)  =  25.00
                  Electrical balance (eq)  =  -4.939e-07
 Percent error, 100*(Cat-|An|)/(Cat+|An|)  =  -0.01
                               Iterations  =  12
                                  Total H  = 1.110122e+02
                                  Total O  = 5.551083e+01

----------------------------Distribution of species----------------------------

                                               Log       Log       Log    mole V
   Species          Molality    Activity  Molality  Activity     Gamma   cm3/mol

   OH-             1.070e-06   1.004e-06    -5.971    -5.998    -0.028     (0)  
   H+              1.057e-08   9.971e-09    -7.976    -8.001    -0.025      0.00
   H2O             5.551e+01   1.000e+00     1.744    -0.000     0.000     18.07
As(3)         2.678e-07
   H3AsO3          2.489e-07   2.491e-07    -6.604    -6.604     0.000     (0)  
   H2AsO3-         1.885e-08   1.769e-08    -7.725    -7.752    -0.028     (0)  
   HAsO3-2         4.567e-15   3.539e-15   -14.340   -14.451    -0.111     (0)  
   H4AsO3+         1.312e-15   1.231e-15   -14.882   -14.910    -0.028     (0)  
   AsS(OH)(HS)-    7.319e-19   6.867e-19   -18.136   -18.163    -0.028     (0)  
   AsO3-3          1.257e-22   7.082e-23   -21.901   -22.150    -0.249     (0)  
   As3S4(HS)2-     0.000e+00   0.000e+00   -52.264   -52.292    -0.028     (0)  
As(5)         1.038e-11
   HAsO4-2         9.271e-12   7.185e-12   -11.033   -11.144    -0.111     (0)  
   H2AsO4-         1.104e-12   1.036e-12   -11.957   -11.985    -0.028     (0)  
   AsO4-3          2.863e-15   1.613e-15   -14.543   -14.792    -0.249     (0)  
   H3AsO4          2.059e-18   2.060e-18   -17.686   -17.686     0.000     (0)  
C(-4)         4.377e-14
   CH4             4.377e-14   4.381e-14   -13.359   -13.358     0.000     (0)  
C(4)          1.038e-03
   HCO3-           9.950e-04   9.350e-04    -3.002    -3.029    -0.027     (0)  
   CO2             2.095e-05   2.096e-05    -4.679    -4.679     0.000     (0)  
   CaHCO3+         9.574e-06   8.983e-06    -5.019    -5.047    -0.028     (0)  
   CO3-2           5.641e-06   4.397e-06    -5.249    -5.357    -0.108     (0)  
   CaCO3           5.545e-06   5.550e-06    -5.256    -5.256     0.000     (0)  
   FeCO3           8.065e-07   8.072e-07    -6.093    -6.093     0.000     (0)  
   FeHCO3+         7.625e-07   7.154e-07    -6.118    -6.145    -0.028     (0)  
Ca            1.038e-03
   Ca+2            9.668e-04   7.533e-04    -3.015    -3.123    -0.108     (0)  
   CaSO4           5.591e-05   5.595e-05    -4.253    -4.252     0.000     (0)  
   CaHCO3+         9.574e-06   8.983e-06    -5.019    -5.047    -0.028     (0)  
   CaCO3           5.545e-06   5.550e-06    -5.256    -5.256     0.000     (0)  
   CaOH+           1.336e-08   1.254e-08    -7.874    -7.902    -0.028     (0)  
   CaHSO4+         3.484e-12   3.268e-12   -11.458   -11.486    -0.028     (0)  
Fe(2)         1.221e-05
   Fe+2            9.873e-06   7.652e-06    -5.006    -5.116    -0.111     (0)  
   FeCO3           8.065e-07   8.072e-07    -6.093    -6.093     0.000     (0)  
   FeHCO3+         7.625e-07   7.154e-07    -6.118    -6.145    -0.028     (0)  
   FeSO4           5.061e-07   5.065e-07    -6.296    -6.295     0.000     (0)  
   FeOH+           2.586e-07   2.427e-07    -6.587    -6.615    -0.028     (0)  
   Fe(OH)2         2.070e-10   2.071e-10    -9.684    -9.684     0.000     (0)  
   Fe(OH)3-        8.225e-13   7.717e-13   -12.085   -12.113    -0.028     (0)  
   FeHSO4+         3.538e-14   3.320e-14   -13.451   -13.479    -0.028     (0)  
   Fe(HS)2         1.726e-18   1.727e-18   -17.763   -17.763     0.000     (0)  
   Fe(HS)3-        3.190e-27   2.993e-27   -26.496   -26.524    -0.028     (0)  
Fe(3)         3.248e-11
   Fe(OH)3         2.752e-11   2.754e-11   -10.560   -10.560     0.000     (0)  
   Fe(OH)4-        2.685e-12   2.519e-12   -11.571   -11.599    -0.028     (0)  
   Fe(OH)2+        2.272e-12   2.132e-12   -11.644   -11.671    -0.028     (0)  
   FeOH+2          8.284e-17   6.420e-17   -16.082   -16.192    -0.111     (0)  
   FeSO4+          4.313e-22   4.047e-22   -21.365   -21.393    -0.028     (0)  
   Fe+3            1.759e-22   9.915e-23   -21.755   -22.004    -0.249     (0)  
   Fe(SO4)2-       3.513e-24   3.296e-24   -23.454   -23.482    -0.028     (0)  
   FeHSO4+2        1.394e-29   1.081e-29   -28.856   -28.966    -0.111     (0)  
   Fe2(OH)2+4      3.075e-31   1.109e-31   -30.512   -30.955    -0.443     (0)  
   Fe3(OH)4+5      2.430e-40   0.000e+00   -39.614   -40.306    -0.692     (0)  
H(0)          7.641e-12
   H2              3.820e-12   3.823e-12   -11.418   -11.418     0.000     (0)  
O(0)          0.000e+00
   O2              0.000e+00   0.000e+00   -69.545   -69.545     0.000     (0)  
S(-2)         2.364e-11
   HS-             1.696e-11   1.591e-11   -10.771   -10.798    -0.028     (0)  
   H2S             1.386e-12   1.387e-12   -11.858   -11.858     0.000     (0)  
   S5-2            5.070e-13   4.055e-13   -12.295   -12.392    -0.097     (0)  
   S4-2            2.980e-13   2.366e-13   -12.526   -12.626    -0.100     (0)  
   S6-2            2.607e-13   2.099e-13   -12.584   -12.678    -0.094     (0)  
   S-2             2.487e-16   1.928e-16   -15.604   -15.715    -0.111     (0)  
   S3-2            1.058e-16   8.337e-17   -15.975   -16.079    -0.103     (0)  
   S2-2            6.042e-18   4.732e-18   -17.219   -17.325    -0.106     (0)  
   Fe(HS)2         1.726e-18   1.727e-18   -17.763   -17.763     0.000     (0)  
   AsS(OH)(HS)-    7.319e-19   6.867e-19   -18.136   -18.163    -0.028     (0)  
   Fe(HS)3-        3.190e-27   2.993e-27   -26.496   -26.524    -0.028     (0)  
   As3S4(HS)2-     0.000e+00   0.000e+00   -52.264   -52.292    -0.028     (0)  
S(6)          5.349e-04
   SO4-2           4.785e-04   3.723e-04    -3.320    -3.429    -0.109     (0)  
   CaSO4           5.591e-05   5.595e-05    -4.253    -4.252     0.000     (0)  
   FeSO4           5.061e-07   5.065e-07    -6.296    -6.295     0.000     (0)  
   HSO4-           3.846e-10   3.609e-10    -9.415    -9.443    -0.028     (0)  
   CaHSO4+         3.484e-12   3.268e-12   -11.458   -11.486    -0.028     (0)  
   FeHSO4+         3.538e-14   3.320e-14   -13.451   -13.479    -0.028     (0)  
   FeSO4+          4.313e-22   4.047e-22   -21.365   -21.393    -0.028     (0)  
   Fe(SO4)2-       3.513e-24   3.296e-24   -23.454   -23.482    -0.028     (0)  
   FeHSO4+2        1.394e-29   1.081e-29   -28.856   -28.966    -0.111     (0)  

------------------------------Saturation indices-------------------------------

	Phase               SI   log IAP   log K(298 K,   1 atm)

	Anhydrite        -2.19     -6.55   -4.36  CaSO4
	Aragonite        -0.14     -8.48   -8.34  CaCO3
	Arsenolite      -11.83    -13.21   -1.38  As2O3
	As-pyrite        -0.00    -18.48  -18.48  FeAs0.004S1.996
	As2O5(cr)       -43.60    -35.37    8.23  As2O5
	As2S3(am)       -24.71    -69.61  -44.90  As2S3
	As_native        -6.47    -19.00  -12.53  As
	Ca3(AsO4)2:4w   -20.05    -38.95  -18.91  Ca3(AsO4)2:4H2O
	Calcite           0.00     -8.48   -8.48  CaCO3
	CH4(g)          -10.50    -13.36   -2.86  CH4
	Claudetite      -11.87    -13.21   -1.34  As2O3
	CO2(g)           -3.21     -4.68   -1.47  CO2
	Fe(OH)3(a)       -2.89      2.00    4.89  Fe(OH)3
	Fe3(OH)8         -5.34     14.89   20.22  Fe3(OH)8
	FeS(ppt)         -4.00     -7.91   -3.92  FeS
	Goethite          3.00      2.00   -1.00  FeOOH
	Greigite        -15.28    -60.31  -45.03  Fe3S4
	Gypsum           -1.97     -6.55   -4.58  CaSO4:2H2O
	H2(g)            -8.27    -11.42   -3.15  H2
	H2O(g)           -1.51     -0.00    1.51  H2O
	H2S(g)          -10.86    -11.86   -1.00  H2S
	Hematite          8.01      4.00   -4.01  Fe2O3
	JarositeH       -27.47    -32.86   -5.39  (H3O)Fe3(SO4)2(OH)6
	Mackinawite      -3.27     -7.91   -4.65  FeS
	Maghemite        -2.39      4.00    6.39  Fe2O3
	Magnetite        11.15     14.89    3.74  Fe3O4
	Melanterite      -6.34     -8.55   -2.21  FeSO4:7H2O
	O2(g)           -66.65    -69.54   -2.89  O2
	Orpiment        -23.31    -69.61  -46.30  As2S3
	Portlandite      -9.92     12.88   22.80  Ca(OH)2
	Pyrite            0.03    -18.45  -18.48  FeS2
	Realgar          -9.59    -29.54  -19.94  AsS
	Scorodite       -16.55    -36.80  -20.25  FeAsO4:2H2O
	Siderite          0.42    -10.47  -10.89  FeCO3
	Siderite(d)(3)   -0.02    -10.47  -10.45  FeCO3
	Sulfur           -8.42    -23.45  -15.03  S


Reaction step 2.

Using solution 1.	Solution after simulation 1.
Using surface 1.	
Using pure phase assemblage 1.	
Using reaction 1.	

Reaction 1.	

	  2.000e-03 moles of the following reaction have been added:

	                 Relative
	Reactant            moles

	O2                   1.00000

	                 Relative
	Element             moles
	O                    2.00000

----------------------------------User print-----------------------------------

As(5) sorbed:    1.6258e-08 
As(3) sorbed:    1.8215e-06 
As sorbed:       1.8378e-06 
SURF(Hfo_w, Hfo):    4.5200e-05   4.5201e-05 
SURF(Hfo, Hfo):      4.5200e-05 

-------------------------------Phase assemblage--------------------------------

                                                      Moles in assemblage
Phase               SI  log IAP  log K(T, P)   Initial       Final       Delta

As-pyrite        -0.00   -18.48    -18.48    1.000e+01   9.999e+00  -5.395e-04
Calcite           0.00    -8.48     -8.48    1.000e+01   9.998e+00  -1.783e-03
Goethite          3.00     2.00     -1.00    0.000e+00   4.520e-04   4.520e-04

------------------------------Surface composition------------------------------

Hfo           
	  1.965e-06  Surface charge, eq
	  7.947e-03  sigma, C/m**2
	  3.985e-02  psi, V
	 -1.551e+00  -F*psi/RT
	  2.120e-01  exp(-F*psi/RT)
	  5.280e+04  specific area, m**2/mol Goethite
	  2.387e+01  m**2 for   4.520e-04 moles of Goethite


Hfo_w         
	  4.520e-05  moles	[0.1 mol/(mol Goethite)]
	                                   Mole                     Log
	Species               Moles    Fraction    Molality    Molality

	Hfo_wOH           2.267e-05       0.502   2.267e-05      -4.645
	Hfo_wOFe+         7.697e-06       0.170   7.697e-06      -5.114
	Hfo_wO-           4.443e-06       0.098   4.443e-06      -5.352
	Hfo_wOFeOH        3.455e-06       0.076   3.455e-06      -5.462
	Hfo_wOH2+         2.650e-06       0.059   2.650e-06      -5.577
	Hfo_wOHSO4-2      2.034e-06       0.045   2.034e-06      -5.692
	Hfo_wH2AsO3       1.822e-06       0.040   1.822e-06      -5.740
	Hfo_wOCa+         2.963e-07       0.007   2.963e-07      -6.528
	Hfo_wSO4-         1.191e-07       0.003   1.191e-07      -6.924
	Hfo_wOHAsO4-3     1.625e-08       0.000   1.625e-08      -7.789
	Hfo_wHAsO4-       4.972e-12       0.000   4.972e-12     -11.303
	Hfo_wH2AsO4       1.881e-14       0.000   1.881e-14     -13.726

-----------------------------Solution composition------------------------------

	Elements           Molality       Moles

	As                3.207e-07   3.206e-07
	C                 1.906e-03   1.906e-03
	Ca                1.905e-03   1.905e-03
	Fe                7.646e-05   7.646e-05
	S                 1.075e-03   1.075e-03

----------------------------Description of solution----------------------------

                                       pH  =   7.549      Charge balance
                                       pe  =  -3.262      Adjusted to redox equilibrium
                        Activity of water  =   1.000
                           Ionic strength  =   6.265e-03
                       Mass of water (kg)  =   1.000e+00
                 Total alkalinity (eq/kg)  =   1.816e-03
                       Total CO2 (mol/kg)  =   1.906e-03
                      Temperature (deg C)  =  25.00
                  Electrical balance (eq)  =  -1.966e-06
 Percent error, 100*(Cat-|An|)/(Cat+|An|)  =  -0.03
                               Iterations  =  12
                                  Total H  = 1.110120e+02
                                  Total O  = 5.551501e+01

----------------------------Distribution of species----------------------------

                                               Log       Log       Log    mole V
   Species          Molality    Activity  Molality  Activity     Gamma   cm3/mol

   OH-             3.849e-07   3.540e-07    -6.415    -6.451    -0.036     (0)  
   H+              3.049e-08   2.828e-08    -7.516    -7.549    -0.033      0.00
   H2O             5.551e+01   9.999e-01     1.744    -0.000     0.000     18.07
As(3)         3.206e-07
   H3AsO3          3.121e-07   3.126e-07    -6.506    -6.505     0.001     (0)  
   H2AsO3-         8.510e-09   7.825e-09    -8.070    -8.107    -0.036     (0)  
   H4AsO3+         4.763e-15   4.380e-15   -14.322   -14.359    -0.036     (0)  
   HAsO3-2         7.724e-16   5.521e-16   -15.112   -15.258    -0.146     (0)  
   AsS(OH)(HS)-    2.335e-19   2.147e-19   -18.632   -18.668    -0.036     (0)  
   AsO3-3          8.291e-24   3.895e-24   -23.081   -23.409    -0.328     (0)  
   As3S4(HS)2-     0.000e+00   0.000e+00   -52.865   -52.902    -0.036     (0)  
As(5)         4.184e-12
   HAsO4-2         3.175e-12   2.269e-12   -11.498   -11.644    -0.146     (0)  
   H2AsO4-         1.009e-12   9.277e-13   -11.996   -12.033    -0.036     (0)  
   AsO4-3          3.824e-16   1.797e-16   -15.418   -15.746    -0.328     (0)  
   H3AsO4          5.227e-18   5.235e-18   -17.282   -17.281     0.001     (0)  
C(-4)         1.278e-14
   CH4             1.278e-14   1.279e-14   -13.894   -13.893     0.001     (0)  
C(4)          1.906e-03
   HCO3-           1.756e-03   1.618e-03    -2.756    -2.791    -0.035     (0)  
   CO2             1.028e-04   1.029e-04    -3.988    -3.988     0.001     (0)  
   CaHCO3+         2.771e-05   2.548e-05    -4.557    -4.594    -0.036     (0)  
   FeHCO3+         7.613e-06   7.000e-06    -5.118    -5.155    -0.036     (0)  
   CaCO3           5.542e-06   5.550e-06    -5.256    -5.256     0.001     (0)  
   CO3-2           3.718e-06   2.683e-06    -5.430    -5.571    -0.142     (0)  
   FeCO3           2.781e-06   2.785e-06    -5.556    -5.555     0.001     (0)  
Ca            1.905e-03
   Ca+2            1.711e-03   1.234e-03    -2.767    -2.909    -0.142     (0)  
   CaSO4           1.608e-04   1.610e-04    -3.794    -3.793     0.001     (0)  
   CaHCO3+         2.771e-05   2.548e-05    -4.557    -4.594    -0.036     (0)  
   CaCO3           5.542e-06   5.550e-06    -5.256    -5.256     0.001     (0)  
   CaOH+           7.878e-09   7.244e-09    -8.104    -8.140    -0.036     (0)  
   CaHSO4+         2.902e-11   2.668e-11   -10.537   -10.574    -0.036     (0)  
Fe(2)         7.646e-05
   Fe+2            6.052e-05   4.326e-05    -4.218    -4.364    -0.146     (0)  
   FeHCO3+         7.613e-06   7.000e-06    -5.118    -5.155    -0.036     (0)  
   FeSO4           5.022e-06   5.029e-06    -5.299    -5.298     0.001     (0)  
   FeCO3           2.781e-06   2.785e-06    -5.556    -5.555     0.001     (0)  
   FeOH+           5.260e-07   4.837e-07    -6.279    -6.315    -0.036     (0)  
   Fe(OH)2         1.453e-10   1.456e-10    -9.838    -9.837     0.001     (0)  
   FeHSO4+         1.017e-12   9.349e-13   -11.993   -12.029    -0.036     (0)  
   Fe(OH)3-        2.080e-13   1.912e-13   -12.682   -12.718    -0.036     (0)  
   Fe(HS)2         8.564e-19   8.577e-19   -18.067   -18.067     0.001     (0)  
   Fe(HS)3-        4.791e-28   4.405e-28   -27.320   -27.356    -0.036     (0)  
Fe(3)         3.504e-11
   Fe(OH)3         2.750e-11   2.754e-11   -10.561   -10.560     0.001     (0)  
   Fe(OH)2+        6.576e-12   6.046e-12   -11.182   -11.219    -0.036     (0)  
   Fe(OH)4-        9.658e-13   8.881e-13   -12.015   -12.052    -0.036     (0)  
   FeOH+2          7.224e-16   5.164e-16   -15.141   -15.287    -0.146     (0)  
   FeSO4+          1.764e-20   1.622e-20   -19.754   -19.790    -0.036     (0)  
   Fe+3            4.815e-21   2.262e-21   -20.317   -20.645    -0.328     (0)  
   Fe(SO4)2-       2.523e-22   2.320e-22   -21.598   -21.635    -0.036     (0)  
   FeHSO4+2        1.718e-27   1.228e-27   -26.765   -26.911    -0.146     (0)  
   Fe2(OH)2+4      2.749e-29   7.178e-30   -28.561   -29.144    -0.583     (0)  
   Fe3(OH)4+5      7.392e-38   9.067e-39   -37.131   -38.043    -0.911     (0)  
H(0)          3.771e-12
   H2              1.886e-12   1.888e-12   -11.725   -11.724     0.001     (0)  
O(0)          0.000e+00
   O2              0.000e+00   0.000e+00   -68.933   -68.932     0.001     (0)  
S(-2)         6.881e-12
   HS-             5.130e-12   4.717e-12   -11.290   -11.326    -0.036     (0)  
   H2S             1.165e-12   1.166e-12   -11.934   -11.933     0.001     (0)  
   S5-2            5.626e-14   4.238e-14   -13.250   -13.373    -0.123     (0)  
   S4-2            3.321e-14   2.473e-14   -13.479   -13.607    -0.128     (0)  
   S6-2            2.881e-14   2.194e-14   -13.540   -13.659    -0.118     (0)  
   S-2             2.818e-17   2.014e-17   -16.550   -16.696    -0.146     (0)  
   S3-2            1.185e-17   8.713e-18   -16.926   -17.060    -0.134     (0)  
   Fe(HS)2         8.564e-19   8.577e-19   -18.067   -18.067     0.001     (0)  
   S2-2            6.796e-19   4.945e-19   -18.168   -18.306    -0.138     (0)  
   AsS(OH)(HS)-    2.335e-19   2.147e-19   -18.632   -18.668    -0.036     (0)  
   Fe(HS)3-        4.791e-28   4.405e-28   -27.320   -27.356    -0.036     (0)  
   As3S4(HS)2-     0.000e+00   0.000e+00   -52.865   -52.902    -0.036     (0)  
S(6)          1.075e-03
   SO4-2           9.091e-04   6.538e-04    -3.041    -3.185    -0.143     (0)  
   CaSO4           1.608e-04   1.610e-04    -3.794    -3.793     0.001     (0)  
   FeSO4           5.022e-06   5.029e-06    -5.299    -5.298     0.001     (0)  
   HSO4-           1.955e-09   1.798e-09    -8.709    -8.745    -0.036     (0)  
   CaHSO4+         2.902e-11   2.668e-11   -10.537   -10.574    -0.036     (0)  
   FeHSO4+         1.017e-12   9.349e-13   -11.993   -12.029    -0.036     (0)  
   FeSO4+          1.764e-20   1.622e-20   -19.754   -19.790    -0.036     (0)  
   Fe(SO4)2-       2.523e-22   2.320e-22   -21.598   -21.635    -0.036     (0)  
   FeHSO4+2        1.718e-27   1.228e-27   -26.765   -26.911    -0.146     (0)  

------------------------------Saturation indices-------------------------------

	Phase               SI   log IAP   log K(298 K,   1 atm)

	Anhydrite        -1.73     -6.09   -4.36  CaSO4
	Aragonite        -0.14     -8.48   -8.34  CaCO3
	Arsenolite      -11.63    -13.01   -1.38  As2O3
	As-pyrite        -0.00    -18.48  -18.48  FeAs0.004S1.996
	As2O5(cr)       -42.79    -34.56    8.23  As2O5
	As2S3(am)       -24.73    -69.63  -44.90  As2S3
	As_native        -6.83    -19.37  -12.53  As
	Ca3(AsO4)2:4w   -21.31    -40.22  -18.91  Ca3(AsO4)2:4H2O
	Calcite           0.00     -8.48   -8.48  CaCO3
	CH4(g)          -11.03    -13.89   -2.86  CH4
	Claudetite      -11.67    -13.01   -1.34  As2O3
	CO2(g)           -2.52     -3.99   -1.47  CO2
	Fe(OH)3(a)       -2.89      2.00    4.89  Fe(OH)3
	Fe3(OH)8         -5.49     14.73   20.22  Fe3(OH)8
	FeS(ppt)         -4.23     -8.14   -3.92  FeS
	Goethite          3.00      2.00   -1.00  FeOOH
	Greigite        -15.73    -60.77  -45.03  Fe3S4
	Gypsum           -1.51     -6.09   -4.58  CaSO4:2H2O
	H2(g)            -8.57    -11.72   -3.15  H2
	H2O(g)           -1.51     -0.00    1.51  H2O
	H2S(g)          -10.94    -11.93   -1.00  H2S
	Hematite          8.01      4.00   -4.01  Fe2O3
	JarositeH       -25.17    -30.56   -5.39  (H3O)Fe3(SO4)2(OH)6
	Mackinawite      -3.49     -8.14   -4.65  FeS
	Maghemite        -2.39      4.00    6.39  Fe2O3
	Magnetite        11.00     14.73    3.74  Fe3O4
	Melanterite      -5.34     -7.55   -2.21  FeSO4:7H2O
	O2(g)           -66.04    -68.93   -2.89  O2
	Orpiment        -23.33    -69.63  -46.30  As2S3
	Portlandite     -10.61     12.19   22.80  Ca(OH)2
	Pyrite            0.04    -18.44  -18.48  FeS2
	Realgar          -9.72    -29.67  -19.94  AsS
	Scorodite       -16.14    -36.39  -20.25  FeAsO4:2H2O
	Siderite          0.95     -9.94  -10.89  FeCO3
	Siderite(d)(3)    0.51     -9.94  -10.45  FeCO3
	Sulfur           -8.19    -23.22  -15.03  S


Reaction step 3.

Using solution 1.	Solution after simulation 1.
Using surface 1.	
Using pure phase assemblage 1.	
Using reaction 1.	

Reaction 1.	

	  3.000e-03 moles of the following reaction have been added:

	                 Relative
	Reactant            moles

	O2                   1.00000

	                 Relative
	Element             moles
	O                    2.00000

----------------------------------User print-----------------------------------

As(5) sorbed:    1.1653e-08 
As(3) sorbed:    2.8500e-06 
As sorbed:       2.8617e-06 
SURF(Hfo_w, Hfo):    6.0412e-05   6.0414e-05 
SURF(Hfo, Hfo):      6.0412e-05 

-------------------------------Phase assemblage--------------------------------

                                                      Moles in assemblage
Phase               SI  log IAP  log K(T, P)   Initial       Final       Delta

As-pyrite        -0.00   -18.48    -18.48    1.000e+01   9.999e+00  -8.146e-04
Calcite          -0.00    -8.48     -8.48    1.000e+01   9.997e+00  -2.516e-03
Goethite          3.00     2.00     -1.00    0.000e+00   6.041e-04   6.041e-04

------------------------------Surface composition------------------------------

Hfo           
	  3.434e-06  Surface charge, eq
	  1.039e-02  sigma, C/m**2
	  4.332e-02  psi, V
	 -1.686e+00  -F*psi/RT
	  1.852e-01  exp(-F*psi/RT)
	  5.280e+04  specific area, m**2/mol Goethite
	  3.190e+01  m**2 for   6.041e-04 moles of Goethite


Hfo_w         
	  6.041e-05  moles	[0.1 mol/(mol Goethite)]
	                                   Mole                     Log
	Species               Moles    Fraction    Molality    Molality

	Hfo_wOH           2.832e-05       0.469   2.832e-05      -4.548
	Hfo_wOFe+         1.175e-05       0.195   1.175e-05      -4.930
	Hfo_wOH2+         4.844e-06       0.080   4.844e-06      -5.315
	Hfo_wOHSO4-2      4.592e-06       0.076   4.592e-06      -5.338
	Hfo_wO-           3.794e-06       0.063   3.794e-06      -5.421
	Hfo_wOFeOH        3.605e-06       0.060   3.606e-06      -5.443
	Hfo_wH2AsO3       2.850e-06       0.047   2.850e-06      -5.545
	Hfo_wSO4-         3.936e-07       0.007   3.936e-07      -6.405
	Hfo_wOCa+         2.470e-07       0.004   2.470e-07      -6.607
	Hfo_wOHAsO4-3     1.165e-08       0.000   1.165e-08      -7.934
	Hfo_wHAsO4-       7.625e-12       0.000   7.625e-12     -11.118
	Hfo_wH2AsO4       4.220e-14       0.000   4.220e-14     -13.375

-----------------------------Solution composition------------------------------

	Elements           Molality       Moles

	As                3.971e-07   3.971e-07
	C                 2.638e-03   2.638e-03
	Ca                2.638e-03   2.638e-03
	Fe                1.952e-04   1.952e-04
	S                 1.621e-03   1.621e-03

----------------------------Description of solution----------------------------

                                       pH  =   7.325      Charge balance
                                       pe  =  -2.959      Adjusted to redox equilibrium
                        Activity of water  =   1.000
                           Ionic strength  =   8.753e-03
                       Mass of water (kg)  =   1.000e+00
                 Total alkalinity (eq/kg)  =   2.428e-03
                       Total CO2 (mol/kg)  =   2.638e-03
                      Temperature (deg C)  =  25.00
                  Electrical balance (eq)  =  -3.434e-06
 Percent error, 100*(Cat-|An|)/(Cat+|An|)  =  -0.03
                               Iterations  =  12
                                  Total H  = 1.110118e+02
                                  Total O  = 5.551889e+01

----------------------------Distribution of species----------------------------

                                               Log       Log       Log    mole V
   Species          Molality    Activity  Molality  Activity     Gamma   cm3/mol

   OH-             2.330e-07   2.114e-07    -6.633    -6.675    -0.042     (0)  
   H+              5.161e-08   4.735e-08    -7.287    -7.325    -0.037      0.00
   H2O             5.551e+01   9.999e-01     1.744    -0.000     0.000     18.07
As(3)         3.971e-07
   H3AsO3          3.906e-07   3.914e-07    -6.408    -6.407     0.001     (0)  
   H2AsO3-         6.451e-09   5.852e-09    -8.190    -8.233    -0.042     (0)  
   H4AsO3+         1.012e-14   9.182e-15   -13.995   -14.037    -0.042     (0)  
   HAsO3-2         3.641e-16   2.466e-16   -15.439   -15.608    -0.169     (0)  
   AsS(OH)(HS)-    1.481e-19   1.344e-19   -18.829   -18.872    -0.042     (0)  
   AsO3-3          2.497e-24   1.039e-24   -23.603   -23.983    -0.381     (0)  
   As3S4(HS)2-     0.000e+00   0.000e+00   -53.022   -53.064    -0.042     (0)  
As(5)         3.243e-12
   HAsO4-2         2.146e-12   1.454e-12   -11.668   -11.838    -0.169     (0)  
   H2AsO4-         1.097e-12   9.949e-13   -11.960   -12.002    -0.042     (0)  
   AsO4-3          1.651e-16   6.873e-17   -15.782   -16.163    -0.381     (0)  
   H3AsO4          9.380e-18   9.399e-18   -17.028   -17.027     0.001     (0)  
C(-4)         6.622e-15
   CH4             6.622e-15   6.635e-15   -14.179   -14.178     0.001     (0)  
C(4)          2.638e-03
   HCO3-           2.329e-03   2.119e-03    -2.633    -2.674    -0.041     (0)  
   CO2             2.252e-04   2.257e-04    -3.647    -3.647     0.001     (0)  
   CaHCO3+         4.702e-05   4.266e-05    -4.328    -4.370    -0.042     (0)  
   FeHCO3+         2.366e-05   2.146e-05    -4.626    -4.668    -0.042     (0)  
   CaCO3           5.538e-06   5.550e-06    -5.257    -5.256     0.001     (0)  
   FeCO3           5.089e-06   5.100e-06    -5.293    -5.292     0.001     (0)  
   CO3-2           3.060e-06   2.099e-06    -5.514    -5.678    -0.164     (0)  
Ca            2.638e-03
   Ca+2            2.302e-03   1.578e-03    -2.638    -2.802    -0.164     (0)  
   CaSO4           2.835e-04   2.841e-04    -3.547    -3.547     0.001     (0)  
   CaHCO3+         4.702e-05   4.266e-05    -4.328    -4.370    -0.042     (0)  
   CaCO3           5.538e-06   5.550e-06    -5.257    -5.256     0.001     (0)  
   CaOH+           6.096e-09   5.530e-09    -8.215    -8.257    -0.042     (0)  
   CaHSO4+         8.685e-11   7.879e-11   -10.061   -10.104    -0.042     (0)  
Fe(2)         1.952e-04
   Fe+2            1.495e-04   1.013e-04    -3.825    -3.995    -0.169     (0)  
   FeHCO3+         2.366e-05   2.146e-05    -4.626    -4.668    -0.042     (0)  
   FeSO4           1.621e-05   1.625e-05    -4.790    -4.789     0.001     (0)  
   FeCO3           5.089e-06   5.100e-06    -5.293    -5.292     0.001     (0)  
   FeOH+           7.454e-07   6.763e-07    -6.128    -6.170    -0.042     (0)  
   Fe(OH)2         1.213e-10   1.216e-10    -9.916    -9.915     0.001     (0)  
   FeHSO4+         5.574e-12   5.057e-12   -11.254   -11.296    -0.042     (0)  
   Fe(OH)3-        1.051e-13   9.536e-14   -12.978   -13.021    -0.042     (0)  
   Fe(HS)2         5.983e-19   5.995e-19   -18.223   -18.222     0.001     (0)  
   Fe(HS)3-        1.855e-28   1.682e-28   -27.732   -27.774    -0.042     (0)  
Fe(3)         3.923e-11
   Fe(OH)3         2.748e-11   2.754e-11   -10.561   -10.560     0.001     (0)  
   Fe(OH)2+        1.116e-11   1.012e-11   -10.952   -10.995    -0.042     (0)  
   Fe(OH)4-        5.846e-13   5.304e-13   -12.233   -12.275    -0.042     (0)  
   FeOH+2          2.137e-15   1.448e-15   -14.670   -14.839    -0.169     (0)  
   FeSO4+          1.158e-19   1.050e-19   -18.936   -18.979    -0.042     (0)  
   Fe+3            2.551e-20   1.062e-20   -19.593   -19.974    -0.381     (0)  
   Fe(SO4)2-       2.285e-21   2.073e-21   -20.641   -20.683    -0.042     (0)  
   FeHSO4+2        1.966e-26   1.332e-26   -25.706   -25.876    -0.169     (0)  
   Fe2(OH)2+4      2.680e-28   5.641e-29   -27.572   -28.249    -0.677     (0)  
   Fe3(OH)4+5      1.362e-36   1.193e-37   -35.866   -36.923    -1.057     (0)  
H(0)          2.628e-12
   H2              1.314e-12   1.317e-12   -11.881   -11.880     0.001     (0)  
O(0)          0.000e+00
   O2              0.000e+00   0.000e+00   -68.620   -68.619     0.001     (0)  
S(-2)         4.105e-12
   HS-             2.841e-12   2.577e-12   -11.547   -11.589    -0.042     (0)  
   H2S             1.065e-12   1.067e-12   -11.973   -11.972     0.001     (0)  
   S5-2            1.907e-14   1.383e-14   -13.720   -13.859    -0.139     (0)  
   S4-2            1.129e-14   8.069e-15   -13.947   -14.093    -0.146     (0)  
   S6-2            9.734e-15   7.159e-15   -14.012   -14.145    -0.133     (0)  
   S-2             9.705e-18   6.574e-18   -17.013   -17.182    -0.169     (0)  
   S3-2            4.046e-18   2.843e-18   -17.393   -17.546    -0.153     (0)  
   Fe(HS)2         5.983e-19   5.995e-19   -18.223   -18.222     0.001     (0)  
   S2-2            2.328e-19   1.614e-19   -18.633   -18.792    -0.159     (0)  
   AsS(OH)(HS)-    1.481e-19   1.344e-19   -18.829   -18.872    -0.042     (0)  
   Fe(HS)3-        1.855e-28   1.682e-28   -27.732   -27.774    -0.042     (0)  
   As3S4(HS)2-     0.000e+00   0.000e+00   -53.022   -53.064    -0.042     (0)  
S(6)          1.621e-03
   SO4-2           1.321e-03   9.021e-04    -2.879    -3.045    -0.166     (0)  
   CaSO4           2.835e-04   2.841e-04    -3.547    -3.547     0.001     (0)  
   FeSO4           1.621e-05   1.625e-05    -4.790    -4.789     0.001     (0)  
   HSO4-           4.578e-09   4.153e-09    -8.339    -8.382    -0.042     (0)  
   CaHSO4+         8.685e-11   7.879e-11   -10.061   -10.104    -0.042     (0)  
   FeHSO4+         5.574e-12   5.057e-12   -11.254   -11.296    -0.042     (0)  
   FeSO4+          1.158e-19   1.050e-19   -18.936   -18.979    -0.042     (0)  
   Fe(SO4)2-       2.285e-21   2.073e-21   -20.641   -20.683    -0.042     (0)  
   FeHSO4+2        1.966e-26   1.332e-26   -25.706   -25.876    -0.169     (0)  

------------------------------Saturation indices-------------------------------

	Phase               SI   log IAP   log K(298 K,   1 atm)

	Anhydrite        -1.49     -5.85   -4.36  CaSO4
	Aragonite        -0.14     -8.48   -8.34  CaCO3
	Arsenolite      -11.43    -12.81   -1.38  As2O3
	As-pyrite        -0.00    -18.48  -18.48  FeAs0.004S1.996
	As2O5(cr)       -42.28    -34.05    8.23  As2O5
	As2S3(am)       -24.66    -69.56  -44.90  As2S3
	As_native        -6.97    -19.50  -12.53  As
	Ca3(AsO4)2:4w   -21.83    -40.73  -18.91  Ca3(AsO4)2:4H2O
	Calcite          -0.00     -8.48   -8.48  CaCO3
	CH4(g)          -11.32    -14.18   -2.86  CH4
	Claudetite      -11.47    -12.81   -1.34  As2O3
	CO2(g)           -2.18     -3.65   -1.47  CO2
	Fe(OH)3(a)       -2.89      2.00    4.89  Fe(OH)3
	Fe3(OH)8         -5.57     14.65   20.22  Fe3(OH)8
	FeS(ppt)         -4.34     -8.26   -3.92  FeS
	Goethite          3.00      2.00   -1.00  FeOOH
	Greigite        -15.96    -61.00  -45.03  Fe3S4
	Gypsum           -1.27     -5.85   -4.58  CaSO4:2H2O
	H2(g)            -8.73    -11.88   -3.15  H2
	H2O(g)           -1.51     -0.00    1.51  H2O
	H2S(g)          -10.97    -11.97   -1.00  H2S
	Hematite          8.01      4.00   -4.01  Fe2O3
	JarositeH       -24.00    -29.39   -5.39  (H3O)Fe3(SO4)2(OH)6
	Mackinawite      -3.61     -8.26   -4.65  FeS
	Maghemite        -2.39      4.00    6.39  Fe2O3
	Magnetite        10.92     14.65    3.74  Fe3O4
	Melanterite      -4.83     -7.04   -2.21  FeSO4:7H2O
	O2(g)           -65.73    -68.62   -2.89  O2
	Orpiment        -23.26    -69.56  -46.30  As2S3
	Portlandite     -10.95     11.85   22.80  Ca(OH)2
	Pyrite            0.04    -18.44  -18.48  FeS2
	Realgar          -9.74    -29.69  -19.94  AsS
	Scorodite       -15.89    -36.14  -20.25  FeAsO4:2H2O
	Siderite          1.22     -9.67  -10.89  FeCO3
	Siderite(d)(3)    0.78     -9.67  -10.45  FeCO3
	Sulfur           -8.08    -23.10  -15.03  S


Reaction step 4.

Using solution 1.	Solution after simulation 1.
Using surface 1.	
Using pure phase assemblage 1.	
Using reaction 1.	

Reaction 1.	

	  4.000e-03 moles of the following reaction have been added:

	                 Relative
	Reactant            moles

	O2                   1.00000

	                 Relative
	Element             moles
	O                    2.00000

----------------------------------User print-----------------------------------

As(5) sorbed:    8.6290e-09 
As(3) sorbed:    3.8727e-06 
As sorbed:       3.8813e-06 
SURF(Hfo_w, Hfo):    7.1826e-05   7.1829e-05 
SURF(Hfo, Hfo):      7.1826e-05 

-------------------------------Phase assemblage--------------------------------

                                                      Moles in assemblage
Phase               SI  log IAP  log K(T, P)   Initial       Final       Delta

As-pyrite        -0.00   -18.48    -18.48    1.000e+01   9.999e+00  -1.092e-03
Calcite           0.00    -8.48     -8.48    1.000e+01   9.997e+00  -3.157e-03
Goethite          3.00     2.00     -1.00    0.000e+00   7.183e-04   7.183e-04

------------------------------Surface composition------------------------------

Hfo           
	  4.726e-06  Surface charge, eq
	  1.202e-02  sigma, C/m**2
	  4.442e-02  psi, V
	 -1.729e+00  -F*psi/RT
	  1.774e-01  exp(-F*psi/RT)
	  5.280e+04  specific area, m**2/mol Goethite
	  3.792e+01  m**2 for   7.183e-04 moles of Goethite


Hfo_w         
	  7.183e-05  moles	[0.1 mol/(mol Goethite)]
	                                   Mole                     Log
	Species               Moles    Fraction    Molality    Molality

	Hfo_wOH           3.112e-05       0.433   3.112e-05      -4.507
	Hfo_wOFe+         1.521e-05       0.212   1.521e-05      -4.818
	Hfo_wOH2+         7.042e-06       0.098   7.042e-06      -5.152
	Hfo_wOHSO4-2      6.893e-06       0.096   6.893e-06      -5.162
	Hfo_wH2AsO3       3.873e-06       0.054   3.873e-06      -5.412
	Hfo_wOFeOH        3.527e-06       0.049   3.527e-06      -5.453
	Hfo_wO-           3.151e-06       0.044   3.151e-06      -5.502
	Hfo_wSO4-         7.818e-07       0.011   7.818e-07      -6.107
	Hfo_wOCa+         2.197e-07       0.003   2.197e-07      -6.658
	Hfo_wOHAsO4-3     8.619e-09       0.000   8.619e-09      -8.065
	Hfo_wHAsO4-       9.880e-12       0.000   9.880e-12     -11.005
	Hfo_wH2AsO4       7.234e-14       0.000   7.234e-14     -13.141

-----------------------------Solution composition------------------------------

	Elements           Molality       Moles

	As                4.887e-07   4.886e-07
	C                 3.280e-03   3.279e-03
	Ca                3.279e-03   3.279e-03
	Fe                3.555e-04   3.555e-04
	S                 2.173e-03   2.173e-03

----------------------------Description of solution----------------------------

                                       pH  =   7.184      Charge balance
                                       pe  =  -2.769      Adjusted to redox equilibrium
                        Activity of water  =   1.000
                           Ionic strength  =   1.102e-02
                       Mass of water (kg)  =   1.000e+00
                 Total alkalinity (eq/kg)  =   2.928e-03
                       Total CO2 (mol/kg)  =   3.280e-03
                      Temperature (deg C)  =  25.00
                  Electrical balance (eq)  =  -4.726e-06
 Percent error, 100*(Cat-|An|)/(Cat+|An|)  =  -0.04
                               Iterations  =  12
                                  Total H  = 1.110117e+02
                                  Total O  = 5.552258e+01

----------------------------Distribution of species----------------------------

                                               Log       Log       Log    mole V
   Species          Molality    Activity  Molality  Activity     Gamma   cm3/mol

   OH-             1.704e-07   1.530e-07    -6.768    -6.815    -0.047     (0)  
   H+              7.185e-08   6.540e-08    -7.144    -7.184    -0.041      0.00
   H2O             5.551e+01   9.999e-01     1.744    -0.000     0.000     18.07
As(3)         4.887e-07
   H3AsO3          4.828e-07   4.840e-07    -6.316    -6.315     0.001     (0)  
   H2AsO3-         5.835e-09   5.240e-09    -8.234    -8.281    -0.047     (0)  
   H4AsO3+         1.747e-14   1.568e-14   -13.758   -13.805    -0.047     (0)  
   HAsO3-2         2.459e-16   1.599e-16   -15.609   -15.796    -0.187     (0)  
   AsS(OH)(HS)-    1.195e-19   1.073e-19   -18.923   -18.970    -0.047     (0)  
   AsO3-3          1.285e-24   4.877e-25   -23.891   -24.312    -0.421     (0)  
   As3S4(HS)2-     0.000e+00   0.000e+00   -53.031   -53.077    -0.047     (0)  
As(5)         3.080e-12
   HAsO4-2         1.829e-12   1.189e-12   -11.738   -11.925    -0.187     (0)  
   H2AsO4-         1.251e-12   1.124e-12   -11.903   -11.949    -0.047     (0)  
   AsO4-3          1.072e-16   4.069e-17   -15.970   -16.390    -0.421     (0)  
   H3AsO4          1.463e-17   1.466e-17   -16.835   -16.834     0.001     (0)  
C(-4)         4.270e-15
   CH4             4.270e-15   4.281e-15   -14.370   -14.368     0.001     (0)  
C(4)          3.280e-03
   HCO3-           2.782e-03   2.508e-03    -2.556    -2.601    -0.045     (0)  
   CO2             3.679e-04   3.688e-04    -3.434    -3.433     0.001     (0)  
   CaHCO3+         6.562e-05   5.892e-05    -4.183    -4.230    -0.047     (0)  
   FeHCO3+         4.804e-05   4.314e-05    -4.318    -4.365    -0.047     (0)  
   FeCO3           7.402e-06   7.420e-06    -5.131    -5.130     0.001     (0)  
   CaCO3           5.536e-06   5.550e-06    -5.257    -5.256     0.001     (0)  
   CO3-2           2.725e-06   1.798e-06    -5.565    -5.745    -0.181     (0)  
Ca            3.279e-03
   Ca+2            2.794e-03   1.842e-03    -2.554    -2.735    -0.181     (0)  
   CaSO4           4.146e-04   4.157e-04    -3.382    -3.381     0.001     (0)  
   CaHCO3+         6.562e-05   5.892e-05    -4.183    -4.230    -0.047     (0)  
   CaCO3           5.536e-06   5.550e-06    -5.257    -5.256     0.001     (0)  
   CaOH+           5.205e-09   4.674e-09    -8.284    -8.330    -0.047     (0)  
   CaHSO4+         1.774e-10   1.593e-10    -9.751    -9.798    -0.047     (0)  
Fe(2)         3.555e-04
   Fe+2            2.646e-04   1.720e-04    -3.577    -3.764    -0.187     (0)  
   FeHCO3+         4.804e-05   4.314e-05    -4.318    -4.365    -0.047     (0)  
   FeSO4           3.451e-05   3.459e-05    -4.462    -4.461     0.001     (0)  
   FeCO3           7.402e-06   7.420e-06    -5.131    -5.130     0.001     (0)  
   FeOH+           9.262e-07   8.316e-07    -6.033    -6.080    -0.047     (0)  
   Fe(OH)2         1.079e-10   1.082e-10    -9.967    -9.966     0.001     (0)  
   FeHSO4+         1.656e-11   1.487e-11   -10.781   -10.828    -0.047     (0)  
   Fe(OH)3-        6.846e-14   6.147e-14   -13.165   -13.211    -0.047     (0)  
   Fe(HS)2         4.746e-19   4.758e-19   -18.324   -18.323     0.001     (0)  
   Fe(HS)3-        1.016e-28   9.127e-29   -27.993   -28.040    -0.047     (0)  
Fe(3)         4.347e-11
   Fe(OH)3         2.747e-11   2.754e-11   -10.561   -10.560     0.001     (0)  
   Fe(OH)2+        1.557e-11   1.398e-11   -10.808   -10.854    -0.047     (0)  
   Fe(OH)4-        4.276e-13   3.840e-13   -12.369   -12.416    -0.047     (0)  
   FeOH+2          4.249e-15   2.762e-15   -14.372   -14.559    -0.187     (0)  
   FeSO4+          3.864e-19   3.470e-19   -18.413   -18.460    -0.047     (0)  
   Fe+3            7.375e-20   2.798e-20   -19.132   -19.553    -0.421     (0)  
   Fe(SO4)2-       9.560e-21   8.584e-21   -20.020   -20.066    -0.047     (0)  
   FeHSO4+2        9.347e-26   6.076e-26   -25.029   -25.216    -0.187     (0)  
   Fe2(OH)2+4      1.150e-27   2.053e-28   -26.939   -27.688    -0.748     (0)  
   Fe3(OH)4+5      8.854e-36   5.998e-37   -35.053   -36.222    -1.169     (0)  
H(0)          2.082e-12
   H2              1.041e-12   1.044e-12   -11.983   -11.981     0.001     (0)  
O(0)          0.000e+00
   O2              0.000e+00   0.000e+00   -68.418   -68.417     0.001     (0)  
S(-2)         3.068e-12
   HS-             1.962e-12   1.762e-12   -11.707   -11.754    -0.047     (0)  
   H2S             1.005e-12   1.007e-12   -11.998   -11.997     0.001     (0)  
   S5-2            9.701e-15   6.844e-15   -14.013   -14.165    -0.151     (0)  
   S4-2            5.762e-15   3.993e-15   -14.239   -14.399    -0.159     (0)  
   S6-2            4.940e-15   3.543e-15   -14.306   -14.451    -0.144     (0)  
   S-2             5.005e-18   3.253e-18   -17.301   -17.488    -0.187     (0)  
   S3-2            2.071e-18   1.407e-18   -17.684   -17.852    -0.168     (0)  
   Fe(HS)2         4.746e-19   4.758e-19   -18.324   -18.323     0.001     (0)  
   S2-2            1.195e-19   7.986e-20   -18.923   -19.098    -0.175     (0)  
   AsS(OH)(HS)-    1.195e-19   1.073e-19   -18.923   -18.970    -0.047     (0)  
   Fe(HS)3-        1.016e-28   9.127e-29   -27.993   -28.040    -0.047     (0)  
   As3S4(HS)2-     0.000e+00   0.000e+00   -53.031   -53.077    -0.047     (0)  
S(6)          2.173e-03
   SO4-2           1.724e-03   1.131e-03    -2.763    -2.947    -0.183     (0)  
   CaSO4           4.146e-04   4.157e-04    -3.382    -3.381     0.001     (0)  
   FeSO4           3.451e-05   3.459e-05    -4.462    -4.461     0.001     (0)  
   HSO4-           8.008e-09   7.191e-09    -8.096    -8.143    -0.047     (0)  
   CaHSO4+         1.774e-10   1.593e-10    -9.751    -9.798    -0.047     (0)  
   FeHSO4+         1.656e-11   1.487e-11   -10.781   -10.828    -0.047     (0)  
   FeSO4+          3.864e-19   3.470e-19   -18.413   -18.460    -0.047     (0)  
   Fe(SO4)2-       9.560e-21   8.584e-21   -20.020   -20.066    -0.047     (0)  
   FeHSO4+2        9.347e-26   6.076e-26   -25.029   -25.216    -0.187     (0)  

------------------------------Saturation indices-------------------------------

	Phase               SI   log IAP   log K(298 K,   1 atm)

	Anhydrite        -1.32     -5.68   -4.36  CaSO4
	Aragonite        -0.14     -8.48   -8.34  CaCO3
	Arsenolite      -11.25    -12.63   -1.38  As2O3
	As-pyrite        -0.00    -18.48  -18.48  FeAs0.004S1.996
	As2O5(cr)       -41.90    -33.67    8.23  As2O5
	As2S3(am)       -24.55    -69.45  -44.90  As2S3
	As_native        -7.03    -19.56  -12.53  As
	Ca3(AsO4)2:4w   -22.08    -40.99  -18.91  Ca3(AsO4)2:4H2O
	Calcite           0.00     -8.48   -8.48  CaCO3
	CH4(g)          -11.51    -14.37   -2.86  CH4
	Claudetite      -11.29    -12.63   -1.34  As2O3
	CO2(g)           -1.97     -3.43   -1.47  CO2
	Fe(OH)3(a)       -2.89      2.00    4.89  Fe(OH)3
	Fe3(OH)8         -5.62     14.60   20.22  Fe3(OH)8
	FeS(ppt)         -4.42     -8.33   -3.92  FeS
	Goethite          3.00      2.00   -1.00  FeOOH
	Greigite        -16.11    -61.15  -45.03  Fe3S4
	Gypsum           -1.10     -5.68   -4.58  CaSO4:2H2O
	H2(g)            -8.83    -11.98   -3.15  H2
	H2O(g)           -1.51     -0.00    1.51  H2O
	H2S(g)          -11.00    -12.00   -1.00  H2S
	Hematite          8.01      4.00   -4.01  Fe2O3
	JarositeH       -23.24    -28.63   -5.39  (H3O)Fe3(SO4)2(OH)6
	Mackinawite      -3.69     -8.33   -4.65  FeS
	Maghemite        -2.39      4.00    6.39  Fe2O3
	Magnetite        10.87     14.60    3.74  Fe3O4
	Melanterite      -4.50     -6.71   -2.21  FeSO4:7H2O
	O2(g)           -65.52    -68.42   -2.89  O2
	Orpiment        -23.15    -69.45  -46.30  As2S3
	Portlandite     -11.17     11.63   22.80  Ca(OH)2
	Pyrite            0.04    -18.44  -18.48  FeS2
	Realgar          -9.73    -29.67  -19.94  AsS
	Scorodite       -15.69    -35.94  -20.25  FeAsO4:2H2O
	Siderite          1.38     -9.51  -10.89  FeCO3
	Siderite(d)(3)    0.94     -9.51  -10.45  FeCO3
	Sulfur           -8.00    -23.03  -15.03  S


Reaction step 5.

Using solution 1.	Solution after simulation 1.
Using surface 1.	
Using pure phase assemblage 1.	
Using reaction 1.	

Reaction 1.	

	  5.000e-03 moles of the following reaction have been added:

	                 Relative
	Reactant            moles

	O2                   1.00000

	                 Relative
	Element             moles
	O                    2.00000

----------------------------------User print-----------------------------------

As(5) sorbed:    6.7797e-09 
As(3) sorbed:    4.8896e-06 
As sorbed:       4.8964e-06 
SURF(Hfo_w, Hfo):    8.0407e-05   8.0410e-05 
SURF(Hfo, Hfo):      8.0407e-05 

-------------------------------Phase assemblage--------------------------------

                                                      Moles in assemblage
Phase               SI  log IAP  log K(T, P)   Initial       Final       Delta

As-pyrite        -0.00   -18.48    -18.48    1.000e+01   9.999e+00  -1.372e-03
Calcite           0.00    -8.48     -8.48    1.000e+01   9.996e+00  -3.735e-03
Goethite          3.00     2.00     -1.00    0.000e+00   8.041e-04   8.041e-04

------------------------------Surface composition------------------------------

Hfo           
	  5.835e-06  Surface charge, eq
	  1.326e-02  sigma, C/m**2
	  4.479e-02  psi, V
	 -1.743e+00  -F*psi/RT
	  1.749e-01  exp(-F*psi/RT)
	  5.280e+04  specific area, m**2/mol Goethite
	  4.245e+01  m**2 for   8.041e-04 moles of Goethite


Hfo_w         
	  8.041e-05  moles	[0.1 mol/(mol Goethite)]
	                                   Mole                     Log
	Species               Moles    Fraction    Molality    Molality

	Hfo_wOH           3.229e-05       0.402   3.229e-05      -4.491
	Hfo_wOFe+         1.798e-05       0.224   1.798e-05      -4.745
	Hfo_wOH2+         9.053e-06       0.113   9.054e-06      -5.043
	Hfo_wOHSO4-2      8.753e-06       0.109   8.754e-06      -5.058
	Hfo_wH2AsO3       4.890e-06       0.061   4.890e-06      -5.311
	Hfo_wOFeOH        3.365e-06       0.042   3.365e-06      -5.473
	Hfo_wO-           2.639e-06       0.033   2.639e-06      -5.579
	Hfo_wSO4-         1.230e-06       0.015   1.230e-06      -5.910
	Hfo_wOCa+         1.996e-07       0.002   1.997e-07      -6.700
	Hfo_wOHAsO4-3     6.768e-09       0.000   6.768e-09      -8.170
	Hfo_wHAsO4-       1.191e-11       0.000   1.191e-11     -10.924
	Hfo_wH2AsO4       1.081e-13       0.000   1.081e-13     -12.966

-----------------------------Solution composition------------------------------

	Elements           Molality       Moles

	As                5.929e-07   5.929e-07
	C                 3.858e-03   3.858e-03
	Ca                3.858e-03   3.857e-03
	Fe                5.469e-04   5.469e-04
	S                 2.729e-03   2.729e-03

----------------------------Description of solution----------------------------

                                       pH  =   7.085      Charge balance
                                       pe  =  -2.633      Adjusted to redox equilibrium
                        Activity of water  =   1.000
                           Ionic strength  =   1.314e-02
                       Mass of water (kg)  =   1.000e+00
                 Total alkalinity (eq/kg)  =   3.356e-03
                       Total CO2 (mol/kg)  =   3.858e-03
                      Temperature (deg C)  =  25.00
                  Electrical balance (eq)  =  -5.835e-06
 Percent error, 100*(Cat-|An|)/(Cat+|An|)  =  -0.04
                               Iterations  =  13
                                  Total H  = 1.110116e+02
                                  Total O  = 5.552613e+01

----------------------------Distribution of species----------------------------

                                               Log       Log       Log    mole V
   Species          Molality    Activity  Molality  Activity     Gamma   cm3/mol

   OH-             1.368e-07   1.218e-07    -6.864    -6.914    -0.050     (0)  
   H+              9.088e-08   8.219e-08    -7.042    -7.085    -0.044      0.00
   H2O             5.551e+01   9.998e-01     1.744    -0.000     0.000     18.07
As(3)         5.929e-07
   H3AsO3          5.872e-07   5.890e-07    -6.231    -6.230     0.001     (0)  
   H2AsO3-         5.698e-09   5.073e-09    -8.244    -8.295    -0.050     (0)  
   H4AsO3+         2.694e-14   2.398e-14   -13.570   -13.620    -0.050     (0)  
   HAsO3-2         1.960e-16   1.232e-16   -15.708   -15.909    -0.202     (0)  
   AsS(OH)(HS)-    1.073e-19   9.555e-20   -18.969   -19.020    -0.050     (0)  
   AsO3-3          8.504e-25   2.990e-25   -24.070   -24.524    -0.454     (0)  
   As3S4(HS)2-     0.000e+00   0.000e+00   -52.979   -53.030    -0.050     (0)  
As(5)         3.170e-12
   HAsO4-2         1.724e-12   1.084e-12   -11.763   -11.965    -0.202     (0)  
   H2AsO4-         1.446e-12   1.287e-12   -11.840   -11.890    -0.050     (0)  
   AsO4-3          8.394e-17   2.952e-17   -16.076   -16.530    -0.454     (0)  
   H3AsO4          2.104e-17   2.111e-17   -16.677   -16.676     0.001     (0)  
C(-4)         3.083e-15
   CH4             3.083e-15   3.092e-15   -14.511   -14.510     0.001     (0)  
C(4)          3.858e-03
   HCO3-           3.158e-03   2.823e-03    -2.501    -2.549    -0.049     (0)  
   CO2             5.202e-04   5.218e-04    -3.284    -3.282     0.001     (0)  
   CaHCO3+         8.316e-05   7.404e-05    -4.080    -4.131    -0.050     (0)  
   FeHCO3+         7.920e-05   7.052e-05    -4.101    -4.152    -0.050     (0)  
   FeCO3           9.624e-06   9.653e-06    -5.017    -5.015     0.001     (0)  
   CaCO3           5.533e-06   5.550e-06    -5.257    -5.256     0.001     (0)  
   CO3-2           2.520e-06   1.611e-06    -5.599    -5.793    -0.194     (0)  
Ca            3.858e-03
   Ca+2            3.219e-03   2.056e-03    -2.492    -2.687    -0.195     (0)  
   CaSO4           5.503e-04   5.520e-04    -3.259    -3.258     0.001     (0)  
   CaHCO3+         8.316e-05   7.404e-05    -4.080    -4.131    -0.050     (0)  
   CaCO3           5.533e-06   5.550e-06    -5.257    -5.256     0.001     (0)  
   CaOH+           4.662e-09   4.151e-09    -8.331    -8.382    -0.050     (0)  
   CaHSO4+         2.985e-10   2.658e-10    -9.525    -9.575    -0.050     (0)  
Fe(2)         5.469e-04
   Fe+2            3.974e-04   2.498e-04    -3.401    -3.602    -0.202     (0)  
   FeHCO3+         7.920e-05   7.052e-05    -4.101    -4.152    -0.050     (0)  
   FeSO4           5.958e-05   5.976e-05    -4.225    -4.224     0.001     (0)  
   FeCO3           9.624e-06   9.653e-06    -5.017    -5.015     0.001     (0)  
   FeOH+           1.079e-06   9.609e-07    -5.967    -6.017    -0.050     (0)  
   Fe(OH)2         9.919e-11   9.949e-11   -10.004   -10.002     0.001     (0)  
   FeHSO4+         3.626e-11   3.228e-11   -10.441   -10.491    -0.050     (0)  
   Fe(OH)3-        5.051e-14   4.497e-14   -13.297   -13.347    -0.050     (0)  
   Fe(HS)2         4.012e-19   4.024e-19   -18.397   -18.395     0.001     (0)  
   Fe(HS)3-        6.618e-29   5.892e-29   -28.179   -28.230    -0.050     (0)  
Fe(3)         4.754e-11
   Fe(OH)3         2.745e-11   2.754e-11   -10.561   -10.560     0.001     (0)  
   Fe(OH)2+        1.973e-11   1.757e-11   -10.705   -10.755    -0.050     (0)  
   Fe(OH)4-        3.432e-13   3.055e-13   -12.465   -12.515    -0.050     (0)  
   FeOH+2          6.941e-15   4.362e-15   -14.159   -14.360    -0.202     (0)  
   FeSO4+          9.202e-19   8.193e-19   -18.036   -18.087    -0.050     (0)  
   Fe+3            1.579e-19   5.553e-20   -18.802   -19.255    -0.454     (0)  
   Fe(SO4)2-       2.709e-20   2.412e-20   -19.567   -19.618    -0.050     (0)  
   FeHSO4+2        2.869e-25   1.803e-25   -24.542   -24.744    -0.202     (0)  
   Fe2(OH)2+4      3.283e-27   5.121e-28   -26.484   -27.291    -0.807     (0)  
   Fe3(OH)4+5      3.428e-35   1.880e-36   -34.465   -35.726    -1.261     (0)  
H(0)          1.759e-12
   H2              8.795e-13   8.822e-13   -12.056   -12.054     0.001     (0)  
O(0)          0.000e+00
   O2              0.000e+00   0.000e+00   -68.273   -68.271     0.001     (0)  
S(-2)         2.536e-12
   HS-             1.510e-12   1.345e-12   -11.821   -11.871    -0.050     (0)  
   H2S             9.633e-13   9.662e-13   -12.016   -12.015     0.001     (0)  
   S5-2            6.024e-15   4.157e-15   -14.220   -14.381    -0.161     (0)  
   S4-2            3.586e-15   2.425e-15   -14.445   -14.615    -0.170     (0)  
   S6-2            3.061e-15   2.152e-15   -14.514   -14.667    -0.153     (0)  
   S-2             3.144e-18   1.976e-18   -17.502   -17.704    -0.202     (0)  
   S3-2            1.293e-18   8.547e-19   -17.889   -18.068    -0.180     (0)  
   Fe(HS)2         4.012e-19   4.024e-19   -18.397   -18.395     0.001     (0)  
   AsS(OH)(HS)-    1.073e-19   9.555e-20   -18.969   -19.020    -0.050     (0)  
   S2-2            7.476e-20   4.851e-20   -19.126   -19.314    -0.188     (0)  
   Fe(HS)3-        6.618e-29   5.892e-29   -28.179   -28.230    -0.050     (0)  
   As3S4(HS)2-     0.000e+00   0.000e+00   -52.979   -53.030    -0.050     (0)  
S(6)          2.729e-03
   SO4-2           2.119e-03   1.346e-03    -2.674    -2.871    -0.197     (0)  
   CaSO4           5.503e-04   5.520e-04    -3.259    -3.258     0.001     (0)  
   FeSO4           5.958e-05   5.976e-05    -4.225    -4.224     0.001     (0)  
   HSO4-           1.208e-08   1.075e-08    -7.918    -7.969    -0.050     (0)  
   CaHSO4+         2.985e-10   2.658e-10    -9.525    -9.575    -0.050     (0)  
   FeHSO4+         3.626e-11   3.228e-11   -10.441   -10.491    -0.050     (0)  
   FeSO4+          9.202e-19   8.193e-19   -18.036   -18.087    -0.050     (0)  
   Fe(SO4)2-       2.709e-20   2.412e-20   -19.567   -19.618    -0.050     (0)  
   FeHSO4+2        2.869e-25   1.803e-25   -24.542   -24.744    -0.202     (0)  

------------------------------Saturation indices-------------------------------

	Phase               SI   log IAP   log K(298 K,   1 atm)

	Anhydrite        -1.20     -5.56   -4.36  CaSO4
	Aragonite        -0.14     -8.48   -8.34  CaCO3
	Arsenolite      -11.08    -12.46   -1.38  As2O3
	As-pyrite        -0.00    -18.48  -18.48  FeAs0.004S1.996
	As2O5(cr)       -41.58    -33.35    8.23  As2O5
	As2S3(am)       -24.43    -69.33  -44.90  As2S3
	As_native        -7.05    -19.59  -12.53  As
	Ca3(AsO4)2:4w   -22.22    -41.12  -18.91  Ca3(AsO4)2:4H2O
	Calcite           0.00     -8.48   -8.48  CaCO3
	CH4(g)          -11.65    -14.51   -2.86  CH4
	Claudetite      -11.12    -12.46   -1.34  As2O3
	CO2(g)           -1.81     -3.28   -1.47  CO2
	Fe(OH)3(a)       -2.89      2.00    4.89  Fe(OH)3
	Fe3(OH)8         -5.65     14.57   20.22  Fe3(OH)8
	FeS(ppt)         -4.47     -8.39   -3.92  FeS
	Goethite          3.00      2.00   -1.00  FeOOH
	Greigite        -16.22    -61.26  -45.03  Fe3S4
	Gypsum           -0.98     -5.56   -4.58  CaSO4:2H2O
	H2(g)            -8.90    -12.05   -3.15  H2
	H2O(g)           -1.51     -0.00    1.51  H2O
	H2S(g)          -11.02    -12.01   -1.00  H2S
	Hematite          8.01      4.00   -4.01  Fe2O3
	JarositeH       -22.69    -28.08   -5.39  (H3O)Fe3(SO4)2(OH)6
	Mackinawite      -3.74     -8.39   -4.65  FeS
	Maghemite        -2.39      4.00    6.39  Fe2O3
	Magnetite        10.83     14.57    3.74  Fe3O4
	Melanterite      -4.26     -6.47   -2.21  FeSO4:7H2O
	O2(g)           -65.38    -68.27   -2.89  O2
	Orpiment        -23.03    -69.33  -46.30  As2S3
	Portlandite     -11.32     11.48   22.80  Ca(OH)2
	Pyrite            0.04    -18.44  -18.48  FeS2
	Realgar          -9.69    -29.64  -19.94  AsS
	Scorodite       -15.54    -35.79  -20.25  FeAsO4:2H2O
	Siderite          1.49     -9.40  -10.89  FeCO3
	Siderite(d)(3)    1.05     -9.40  -10.45  FeCO3
	Sulfur           -7.94    -22.97  -15.03  S


------------------
End of simulation.
------------------

------------------------------------
Reading input data for simulation 3.
------------------------------------

------------------------------
End of Run after 0.07 Seconds.
------------------------------

