WARNING: Database file from DATABASE keyword is used; command line argument ignored.
   Input file: ball
  Output file: ball.out
Database file: ../database/phreeqc.dat

------------------
Reading data base.
------------------

	SOLUTION_MASTER_SPECIES
	SOLUTION_SPECIES
	PHASES
	EXCHANGE_MASTER_SPECIES
	EXCHANGE_SPECIES
	SURFACE_MASTER_SPECIES
	SURFACE_SPECIES
	RATES
	END
------------------------------------
Reading input data for simulation 1.
------------------------------------

	DATABASE ../database/phreeqc.dat
	SELECTED_OUTPUT 101
	    file                 ball_101.sel
	USER_PUNCH 101
	    headings Mu SC
	    start
	10 PUNCH STR_F$(MU, 20, 12)
	20 PUNCH STR_F$(SC, 20, 10)
	    end
	TITLE Test solubility of Cd in synthetic stream water.
	SOLUTION 1  Synthetic stream water
	        units      mmol/kgw
	        pH         7.20
		pe	12
	        temp       25.0
	        C               0.53
	        Ca              0.14
	        Cl              0.17
	        K               0.02
	        Mg              0.08
	        Na              0.29
	        S(6)            0.03 as SO4
	end
-----
TITLE
-----

 Test solubility of Cd in synthetic stream water.

-------------------------------------------
Beginning of initial solution calculations.
-------------------------------------------

Initial solution 1.	Synthetic stream water

-----------------------------Solution composition------------------------------

	Elements           Molality       Moles

	C                 5.300e-04   5.300e-04
	Ca                1.400e-04   1.400e-04
	Cl                1.700e-04   1.700e-04
	K                 2.000e-05   2.000e-05
	Mg                8.000e-05   8.000e-05
	Na                2.900e-04   2.900e-04
	S(6)              3.000e-05   3.000e-05

----------------------------Description of solution----------------------------

                                       pH  =   7.200    
                                       pe  =  12.000    
       Specific Conductance (µS/cm, 25°C)  = 76
                          Density (g/cm³)  =   0.99709
                               Volume (L)  =   1.00298
                        Activity of water  =   1.000
                           Ionic strength  =   9.675e-04
                       Mass of water (kg)  =   1.000e+00
                 Total alkalinity (eq/kg)  =   4.669e-04
                       Total CO2 (mol/kg)  =   5.300e-04
                         Temperature (°C)  =  25.00
                  Electrical balance (eq)  =   5.309e-05
 Percent error, 100*(Cat-|An|)/(Cat+|An|)  =   3.69
                               Iterations  =   7
                                  Total H  = 1.110129e+02
                                  Total O  = 5.550786e+01

----------------------------Distribution of species----------------------------

                                               Log       Log       Log    mole V
   Species          Molality    Activity  Molality  Activity     Gamma   cm³/mol

   OH-             1.662e-07   1.604e-07    -6.779    -6.795    -0.015     -4.11
   H+              6.524e-08   6.310e-08    -7.185    -7.200    -0.015      0.00
   H2O             5.551e+01   1.000e+00     1.744    -0.000     0.000     18.07
C(-4)         0.000e+00
   CH4             0.000e+00   0.000e+00  -133.406  -133.406     0.000     35.46
C(4)          5.300e-04
   HCO3-           4.647e-04   4.489e-04    -3.333    -3.348    -0.015     24.68
   CO2             6.367e-05   6.368e-05    -4.196    -4.196     0.000     34.43
   CaHCO3+         7.156e-07   6.914e-07    -6.145    -6.160    -0.015      9.67
   CO3-2           3.832e-07   3.336e-07    -6.417    -6.477    -0.060     -5.27
   MgHCO3+         3.753e-07   3.624e-07    -6.426    -6.441    -0.015      5.48
   NaHCO3          7.065e-08   7.067e-08    -7.151    -7.151     0.000      1.80
   CaCO3           6.765e-08   6.766e-08    -7.170    -7.170     0.000    -14.60
   MgCO3           2.196e-08   2.196e-08    -7.658    -7.658     0.000    -17.09
   NaCO3-          1.801e-09   1.739e-09    -8.744    -8.760    -0.015     -1.03
   (CO2)2          7.442e-11   7.443e-11   -10.128   -10.128     0.000     68.87
Ca            1.400e-04
   Ca+2            1.387e-04   1.207e-04    -3.858    -3.918    -0.060    -18.14
   CaHCO3+         7.156e-07   6.914e-07    -6.145    -6.160    -0.015      9.67
   CaSO4           5.418e-07   5.419e-07    -6.266    -6.266     0.000      7.50
   CaCO3           6.765e-08   6.766e-08    -7.170    -7.170     0.000    -14.60
   CaOH+           3.289e-10   3.175e-10    -9.483    -9.498    -0.015     (0)  
   CaHSO4+         2.328e-13   2.247e-13   -12.633   -12.648    -0.015     (0)  
Cl            1.700e-04
   Cl-             1.700e-04   1.641e-04    -3.770    -3.785    -0.015     18.07
H(0)          0.000e+00
   H2              0.000e+00   0.000e+00   -41.550   -41.550     0.000     28.61
K             2.000e-05
   K+              2.000e-05   1.930e-05    -4.699    -4.714    -0.015      9.01
   KSO4-           3.544e-09   3.424e-09    -8.450    -8.465    -0.015     34.10
Mg            8.000e-05
   Mg+2            7.919e-05   6.899e-05    -4.101    -4.161    -0.060    -21.83
   MgSO4           4.082e-07   4.082e-07    -6.389    -6.389     0.000      5.84
   MgHCO3+         3.753e-07   3.624e-07    -6.426    -6.441    -0.015      5.48
   MgCO3           2.196e-08   2.196e-08    -7.658    -7.658     0.000    -17.09
   MgOH+           4.108e-09   3.970e-09    -8.386    -8.401    -0.015     (0)  
Na            2.900e-04
   Na+             2.899e-04   2.800e-04    -3.538    -3.553    -0.015     -1.48
   NaHCO3          7.065e-08   7.067e-08    -7.151    -7.151     0.000      1.80
   NaSO4-          3.667e-08   3.542e-08    -7.436    -7.451    -0.015     13.73
   NaCO3-          1.801e-09   1.739e-09    -8.744    -8.760    -0.015     -1.03
   NaOH            4.490e-21   4.491e-21   -20.348   -20.348     0.000     (0)  
O(0)          1.049e-09
   O2              5.247e-10   5.248e-10    -9.280    -9.280     0.000     30.40
S(6)          3.000e-05
   SO4-2           2.901e-05   2.524e-05    -4.537    -4.598    -0.060     14.51
   CaSO4           5.418e-07   5.419e-07    -6.266    -6.266     0.000      7.50
   MgSO4           4.082e-07   4.082e-07    -6.389    -6.389     0.000      5.84
   NaSO4-          3.667e-08   3.542e-08    -7.436    -7.451    -0.015     13.73
   KSO4-           3.544e-09   3.424e-09    -8.450    -8.465    -0.015     34.10
   HSO4-           1.604e-10   1.548e-10    -9.795    -9.810    -0.015     40.28
   CaHSO4+         2.328e-13   2.247e-13   -12.633   -12.648    -0.015     (0)  

------------------------------Saturation indices-------------------------------

  Phase               SI** log IAP   log K(298 K,   1 atm)

  Anhydrite        -4.24     -8.52   -4.28  CaSO4
  Aragonite        -2.06    -10.39   -8.34  CaCO3
  Calcite          -1.92    -10.39   -8.48  CaCO3
  CH4(g)         -130.60   -133.41   -2.80  CH4
  CO2(g)           -2.73     -4.20   -1.47  CO2
  Dolomite         -3.94    -21.03  -17.09  CaMg(CO3)2
  Gypsum           -3.94     -8.52   -4.58  CaSO4:2H2O
  H2(g)           -38.45    -41.55   -3.10  H2
  H2O(g)           -1.50     -0.00    1.50  H2O
  Halite           -8.91     -7.34    1.57  NaCl
  O2(g)            -6.39     -9.28   -2.89  O2
  Sylvite          -9.40     -8.50    0.90  KCl

**For a gas, SI = log10(fugacity). Fugacity = pressure * phi / 1 atm.
  For ideal gases, phi = 1.

------------------
End of simulation.
------------------

------------------------------------
Reading input data for simulation 2.
------------------------------------

	knobs
		logfile
	use solution 1
	EQUILIBRIUM_PHASES 1  Diss. Cd(NO3)2 to equil. w/otavite
	Otavite          0.0     Cd(NO3)2    0.0089
	END
-----------------------------------------
Beginning of batch-reaction calculations.
-----------------------------------------

Reaction step 1.

Using solution 1.	Synthetic stream water
Using pure phase assemblage 1.	Diss. Cd(NO3)2 to equil. w/otavite

-------------------------------Phase assemblage--------------------------------

                                                      Moles in assemblage
Phase               SI  log IAP  log K(T, P)   Initial       Final       Delta

Otavite           0.00   -12.10    -12.10
	 Cd(NO3)2           is reactant       8.900e-03   8.897e-03  -2.838e-06

-----------------------------Solution composition------------------------------

	Elements           Molality       Moles

	C                 5.300e-04   5.300e-04
	Ca                1.400e-04   1.400e-04
	Cd                2.838e-06   2.838e-06
	Cl                1.700e-04   1.700e-04
	K                 2.000e-05   2.000e-05
	Mg                8.000e-05   8.000e-05
	N                 5.675e-06   5.675e-06
	Na                2.900e-04   2.900e-04
	S                 3.000e-05   3.000e-05

----------------------------Description of solution----------------------------

                                       pH  =   7.200      Charge balance
                                       pe  =  12.031      Adjusted to redox equilibrium
       Specific Conductance (µS/cm, 25°C)  = 77
                          Density (g/cm³)  =   0.99709
                               Volume (L)  =   1.00298
                        Activity of water  =   1.000
                           Ionic strength  =   9.758e-04
                       Mass of water (kg)  =   1.000e+00
                 Total alkalinity (eq/kg)  =   4.669e-04
                       Total CO2 (mol/kg)  =   5.300e-04
                         Temperature (°C)  =  25.00
                  Electrical balance (eq)  =   5.309e-05
 Percent error, 100*(Cat-|An|)/(Cat+|An|)  =   3.66
                               Iterations  =  13
                                  Total H  = 1.110129e+02
                                  Total O  = 5.550788e+01

----------------------------Distribution of species----------------------------

                                               Log       Log       Log    mole V
   Species          Molality    Activity  Molality  Activity     Gamma   cm³/mol

   OH-             1.661e-07   1.604e-07    -6.780    -6.795    -0.015     -4.11
   H+              6.527e-08   6.311e-08    -7.185    -7.200    -0.015      0.00
   H2O             5.551e+01   1.000e+00     1.744    -0.000     0.000     18.07
C(-4)         0.000e+00
   CH4             0.000e+00   0.000e+00  -133.656  -133.656     0.000     35.46
C(4)          5.300e-04
   HCO3-           4.647e-04   4.488e-04    -3.333    -3.348    -0.015     24.68
   CO2             6.367e-05   6.368e-05    -4.196    -4.196     0.000     34.43
   CaHCO3+         7.151e-07   6.908e-07    -6.146    -6.161    -0.015      9.67
   CO3-2           3.832e-07   3.335e-07    -6.417    -6.477    -0.060     -5.27
   MgHCO3+         3.751e-07   3.621e-07    -6.426    -6.441    -0.015      5.48
   NaHCO3          7.063e-08   7.064e-08    -7.151    -7.151     0.000      1.80
   CaCO3           6.758e-08   6.759e-08    -7.170    -7.170     0.000    -14.60
   CdHCO3+         3.502e-08   3.380e-08    -7.456    -7.471    -0.015     (0)  
   MgCO3           2.194e-08   2.194e-08    -7.659    -7.659     0.000    -17.09
   NaCO3-          1.800e-09   1.738e-09    -8.745    -8.760    -0.015     -1.03
   CdCO3           6.308e-10   6.310e-10    -9.200    -9.200     0.000     (0)  
   (CO2)2          7.443e-11   7.444e-11   -10.128   -10.128     0.000     68.87
   Cd(CO3)2-2      7.661e-13   6.654e-13   -12.116   -12.177    -0.061     (0)  
Ca            1.400e-04
   Ca+2            1.387e-04   1.207e-04    -3.858    -3.918    -0.060    -18.14
   CaHCO3+         7.151e-07   6.908e-07    -6.146    -6.161    -0.015      9.67
   CaSO4           5.409e-07   5.410e-07    -6.267    -6.267     0.000      7.50
   CaCO3           6.758e-08   6.759e-08    -7.170    -7.170     0.000    -14.60
   CaOH+           3.286e-10   3.173e-10    -9.483    -9.499    -0.015     (0)  
   CaHSO4+         2.325e-13   2.244e-13   -12.634   -12.649    -0.015     (0)  
Cd            2.838e-06
   Cd+2            2.742e-06   2.382e-06    -5.562    -5.623    -0.061    -18.75
   CdCl+           3.866e-08   3.732e-08    -7.413    -7.428    -0.015      5.83
   CdHCO3+         3.502e-08   3.380e-08    -7.456    -7.471    -0.015     (0)  
   CdSO4           1.732e-08   1.732e-08    -7.762    -7.761     0.000     78.05
   CdOH+           3.252e-09   3.139e-09    -8.488    -8.503    -0.015     (0)  
   CdCO3           6.308e-10   6.310e-10    -9.200    -9.200     0.000     (0)  
   CdOHCl          2.442e-10   2.442e-10    -9.612    -9.612     0.000     (0)  
   CdNO3+          3.394e-11   3.277e-11   -10.469   -10.485    -0.015     17.52
   CdCl2           2.552e-11   2.552e-11   -10.593   -10.593     0.000     23.14
   Cd(SO4)2-2      5.514e-12   4.789e-12   -11.259   -11.320    -0.061   -105.65
   Cd(OH)2         2.670e-12   2.671e-12   -11.573   -11.573     0.000     (0)  
   Cd(CO3)2-2      7.661e-13   6.654e-13   -12.116   -12.177    -0.061     (0)  
   Cd2OH+3         5.029e-14   3.662e-14   -13.299   -13.436    -0.138     (0)  
   CdCl3-          2.737e-15   2.642e-15   -14.563   -14.578    -0.015     69.32
   Cd(OH)3-        4.919e-18   4.748e-18   -17.308   -17.323    -0.015     (0)  
   Cd(OH)4-2       7.720e-25   6.705e-25   -24.112   -24.174    -0.061     (0)  
   CdHS+           0.000e+00   0.000e+00  -127.436  -127.451    -0.015     (0)  
   Cd(HS)2         0.000e+00   0.000e+00  -253.089  -253.089     0.000     (0)  
   Cd(HS)3-        0.000e+00   0.000e+00  -382.892  -382.907    -0.015     (0)  
   Cd(HS)4-2       0.000e+00   0.000e+00  -512.654  -512.715    -0.061     (0)  
Cl            1.700e-04
   Cl-             1.700e-04   1.641e-04    -3.770    -3.785    -0.015     18.07
   CdCl+           3.866e-08   3.732e-08    -7.413    -7.428    -0.015      5.83
   CdOHCl          2.442e-10   2.442e-10    -9.612    -9.612     0.000     (0)  
   CdCl2           2.552e-11   2.552e-11   -10.593   -10.593     0.000     23.14
   CdCl3-          2.737e-15   2.642e-15   -14.563   -14.578    -0.015     69.32
H(0)          0.000e+00
   H2              0.000e+00   0.000e+00   -41.613   -41.612     0.000     28.61
K             2.000e-05
   K+              2.000e-05   1.930e-05    -4.699    -4.714    -0.015      9.01
   KSO4-           3.541e-09   3.420e-09    -8.451    -8.466    -0.015     34.10
Mg            8.000e-05
   Mg+2            7.919e-05   6.895e-05    -4.101    -4.161    -0.060    -21.82
   MgSO4           4.075e-07   4.076e-07    -6.390    -6.390     0.000      5.84
   MgHCO3+         3.751e-07   3.621e-07    -6.426    -6.441    -0.015      5.48
   MgCO3           2.194e-08   2.194e-08    -7.659    -7.659     0.000    -17.09
   MgOH+           4.105e-09   3.967e-09    -8.387    -8.402    -0.015     (0)  
N(-3)         0.000e+00
   NH4+            0.000e+00   0.000e+00   -54.419   -54.434    -0.016     17.96
   NH3             0.000e+00   0.000e+00   -56.479   -56.478     0.000     24.42
   NH4SO4-         0.000e+00   0.000e+00   -57.907   -57.922    -0.015     37.61
N(0)          1.399e-10
   N2              6.996e-11   6.998e-11   -10.155   -10.155     0.000     29.29
N(3)          7.270e-16
   NO2-            7.270e-16   7.015e-16   -15.138   -15.154    -0.015     24.97
N(5)          5.675e-06
   NO3-            5.675e-06   5.477e-06    -5.246    -5.261    -0.015     29.49
   CdNO3+          3.394e-11   3.277e-11   -10.469   -10.485    -0.015     17.52
Na            2.900e-04
   Na+             2.899e-04   2.799e-04    -3.538    -3.553    -0.015     -1.48
   NaHCO3          7.063e-08   7.064e-08    -7.151    -7.151     0.000      1.80
   NaSO4-          3.662e-08   3.537e-08    -7.436    -7.451    -0.015     13.73
   NaCO3-          1.800e-09   1.738e-09    -8.745    -8.760    -0.015     -1.03
   NaOH            4.488e-21   4.489e-21   -20.348   -20.348     0.000     (0)  
O(0)          1.399e-09
   O2              6.996e-10   6.997e-10    -9.155    -9.155     0.000     30.40
S(-2)         0.000e+00
   CdHS+           0.000e+00   0.000e+00  -127.436  -127.451    -0.015     (0)  
   HS-             0.000e+00   0.000e+00  -131.983  -131.998    -0.015     20.60
   H2S             0.000e+00   0.000e+00  -132.256  -132.256     0.000     37.16
   S-2             0.000e+00   0.000e+00  -137.656  -137.716    -0.061     (0)  
   Cd(HS)2         0.000e+00   0.000e+00  -253.089  -253.089     0.000     (0)  
   Cd(HS)3-        0.000e+00   0.000e+00  -382.892  -382.907    -0.015     (0)  
   Cd(HS)4-2       0.000e+00   0.000e+00  -512.654  -512.715    -0.061     (0)  
S(6)          3.000e-05
   SO4-2           2.899e-05   2.521e-05    -4.538    -4.598    -0.061     14.51
   CaSO4           5.409e-07   5.410e-07    -6.267    -6.267     0.000      7.50
   MgSO4           4.075e-07   4.076e-07    -6.390    -6.390     0.000      5.84
   NaSO4-          3.662e-08   3.537e-08    -7.436    -7.451    -0.015     13.73
   CdSO4           1.732e-08   1.732e-08    -7.762    -7.761     0.000     78.05
   KSO4-           3.541e-09   3.420e-09    -8.451    -8.466    -0.015     34.10
   HSO4-           1.603e-10   1.547e-10    -9.795    -9.810    -0.015     40.28
   Cd(SO4)2-2      5.514e-12   4.789e-12   -11.259   -11.320    -0.061   -105.65
   CaHSO4+         2.325e-13   2.244e-13   -12.634   -12.649    -0.015     (0)  
   NH4SO4-         0.000e+00   0.000e+00   -57.907   -57.922    -0.015     37.61

------------------------------Saturation indices-------------------------------

  Phase               SI** log IAP   log K(298 K,   1 atm)

  Anhydrite        -4.24     -8.52   -4.28  CaSO4
  Aragonite        -2.06    -10.40   -8.34  CaCO3
  Calcite          -1.92    -10.40   -8.48  CaCO3
  Cd(OH)2          -4.87      8.78   13.65  Cd(OH)2
  CdSO4           -10.12    -10.22   -0.10  CdSO4
  CH4(g)         -130.85   -133.66   -2.80  CH4
  CO2(g)           -2.73     -4.20   -1.47  CO2
  Dolomite         -3.94    -21.03  -17.09  CaMg(CO3)2
  Gypsum           -3.94     -8.52   -4.58  CaSO4:2H2O
  H2(g)           -38.51    -41.61   -3.10  H2
  H2O(g)           -1.50     -0.00    1.50  H2O
  H2S(g)         -131.21   -139.20   -7.99  H2S
  Halite           -8.91     -7.34    1.57  NaCl
  N2(g)            -6.98    -10.16   -3.18  N2
  NH3(g)          -58.27    -56.48    1.80  NH3
  O2(g)            -6.26     -9.16   -2.89  O2
  Otavite           0.00    -12.10  -12.10  CdCO3
  Sulfur          -98.68    -93.79    4.88  S
  Sylvite          -9.40     -8.50    0.90  KCl

**For a gas, SI = log10(fugacity). Fugacity = pressure * phi / 1 atm.
  For ideal gases, phi = 1.

------------------
End of simulation.
------------------

------------------------------------
Reading input data for simulation 3.
------------------------------------

------------------------------
End of Run after 0.02 Seconds.
------------------------------

