WARNING: Database file from DATABASE keyword is used; command line argument ignored.
   Input file: ball
  Output file: ball.out
Database file: ../database/phreeqc.dat

------------------
Reading data base.
------------------

	SOLUTION_MASTER_SPECIES
	SOLUTION_SPECIES
	PHASES
	GAS_BINARY_PARAMETERS
	EXCHANGE_MASTER_SPECIES
	EXCHANGE_SPECIES
	SURFACE_MASTER_SPECIES
	SURFACE_SPECIES
	MEAN_GAMMAS
	RATES
	END
------------------------------------
Reading input data for simulation 1.
------------------------------------

	DATABASE ../database/phreeqc.dat
	SELECTED_OUTPUT 101
	    file                 ball_101.sel
	USER_PUNCH 101
	    headings Mu SC
	    start
	10 PUNCH STR_F$(MU, 20, 12)
	20 PUNCH STR_F$(SC, 20, 10)
	    end
	TITLE Test solubility of Cd in synthetic stream water.
	SOLUTION 1  Synthetic stream water
	        units      mmol/kgw
	        pH         7.20
		pe	12
	        temp       25.0
	        C               0.53
	        Ca              0.14
	        Cl              0.17
	        K               0.02
	        Mg              0.08
	        Na              0.29
	        S(6)            0.03 as SO4
	end
-----
TITLE
-----

 Test solubility of Cd in synthetic stream water.

-------------------------------------------
Beginning of initial solution calculations.
-------------------------------------------

Initial solution 1.	Synthetic stream water

-----------------------------Solution composition------------------------------

	Elements           Molality       Moles

	C                 5.300e-04   5.300e-04
	Ca                1.400e-04   1.400e-04
	Cl                1.700e-04   1.700e-04
	K                 2.000e-05   2.000e-05
	Mg                8.000e-05   8.000e-05
	Na                2.900e-04   2.900e-04
	S(6)              3.000e-05   3.000e-05

----------------------------Description of solution----------------------------

                                       pH  =   7.200    
                                       pe  =  12.000    
      Specific Conductance (µS/cm,  25°C)  = 78
                          Density (g/cm³)  =   0.99709
                               Volume (L)  =   1.00298
                        Viscosity (mPa s)  =   0.89070
                        Activity of water  =   1.000
                 Ionic strength (mol/kgw)  =   9.681e-04
                       Mass of water (kg)  =   1.000e+00
                 Total alkalinity (eq/kg)  =   4.669e-04
                       Total CO2 (mol/kg)  =   5.300e-04
                         Temperature (°C)  =  25.00
                  Electrical balance (eq)  =   5.315e-05
 Percent error, 100*(Cat-|An|)/(Cat+|An|)  =   3.69
                               Iterations  =   8
                                  Total H  = 1.110129e+02
                                  Total O  = 5.550786e+01

----------------------------Distribution of species----------------------------

                                               Log       Log       Log    mole V
   Species          Molality    Activity  Molality  Activity     Gamma   cm³/mol

   OH-             1.662e-07   1.604e-07    -6.779    -6.795    -0.015     -4.11
   H+              6.524e-08   6.310e-08    -7.185    -7.200    -0.015      0.00
   H2O             5.551e+01   1.000e+00     1.744    -0.000     0.000     18.07
C(-4)         0.000e+00
   CH4             0.000e+00   0.000e+00  -133.405  -133.405     0.000     35.46
C(4)          5.300e-04
   HCO3-           4.651e-04   4.493e-04    -3.332    -3.347    -0.015     24.58
   CO2             6.373e-05   6.373e-05    -4.196    -4.196     0.000     34.43
   CO3-2           3.835e-07   3.339e-07    -6.416    -6.476    -0.060     -3.94
   MgHCO3+         3.754e-07   3.624e-07    -6.426    -6.441    -0.015      5.48
   CaHCO3+         2.173e-07   2.099e-07    -6.663    -6.678    -0.015      9.67
   NaHCO3          1.094e-07   1.095e-07    -6.961    -6.961     0.000     31.73
   CaCO3           6.795e-08   6.796e-08    -7.168    -7.168     0.000    -14.60
   MgCO3           2.197e-08   2.197e-08    -7.658    -7.658     0.000    -17.09
   KHCO3           3.872e-09   3.872e-09    -8.412    -8.412     0.000     41.03
   (CO2)2          7.454e-11   7.456e-11   -10.128   -10.127     0.000     68.87
Ca            1.400e-04
   Ca+2            1.392e-04   1.212e-04    -3.856    -3.917    -0.060    -18.14
   CaSO4           5.412e-07   5.414e-07    -6.267    -6.267     0.000      7.50
   CaHCO3+         2.173e-07   2.099e-07    -6.663    -6.678    -0.015      9.67
   CaCO3           6.795e-08   6.796e-08    -7.168    -7.168     0.000    -14.60
   CaOH+           3.300e-10   3.187e-10    -9.481    -9.497    -0.015     (0)  
   CaHSO4+         2.325e-13   2.245e-13   -12.634   -12.649    -0.015     (0)  
Cl            1.700e-04
   Cl-             1.700e-04   1.641e-04    -3.770    -3.785    -0.015     18.07
   HCl             3.564e-12   3.567e-12   -11.448   -11.448     0.000     (0)  
H(0)          0.000e+00
   H2              0.000e+00   0.000e+00   -41.550   -41.550     0.000     28.61
K             2.000e-05
   K+              1.999e-05   1.930e-05    -4.699    -4.715    -0.015      9.01
   KSO4-           7.634e-09   7.378e-09    -8.117    -8.132    -0.015     14.14
   KHCO3           3.872e-09   3.872e-09    -8.412    -8.412     0.000     41.03
Mg            8.000e-05
   Mg+2            7.915e-05   6.895e-05    -4.102    -4.161    -0.060    -21.83
   MgSO4           4.534e-07   4.536e-07    -6.343    -6.343     0.000     -7.92
   MgHCO3+         3.754e-07   3.624e-07    -6.426    -6.441    -0.015      5.48
   MgCO3           2.197e-08   2.197e-08    -7.658    -7.658     0.000    -17.09
   MgOH+           4.106e-09   3.967e-09    -8.387    -8.401    -0.015     (0)  
   Mg(SO4)2-2      4.303e-11   3.754e-11   -10.366   -10.425    -0.059     -4.82
Na            2.900e-04
   Na+             2.898e-04   2.798e-04    -3.538    -3.553    -0.015     -1.48
   NaSO4-          1.185e-07   1.145e-07    -6.926    -6.941    -0.015    -21.01
   NaHCO3          1.094e-07   1.095e-07    -6.961    -6.961     0.000     31.73
O(0)          1.049e-09
   O2              5.247e-10   5.248e-10    -9.280    -9.280     0.000     30.40
S(6)          3.000e-05
   SO4-2           2.888e-05   2.513e-05    -4.539    -4.600    -0.060     15.58
   CaSO4           5.412e-07   5.414e-07    -6.267    -6.267     0.000      7.50
   MgSO4           4.534e-07   4.536e-07    -6.343    -6.343     0.000     -7.92
   NaSO4-          1.185e-07   1.145e-07    -6.926    -6.941    -0.015    -21.01
   KSO4-           7.634e-09   7.378e-09    -8.117    -8.132    -0.015     14.14
   HSO4-           1.597e-10   1.541e-10    -9.797    -9.812    -0.015     40.28
   Mg(SO4)2-2      4.303e-11   3.754e-11   -10.366   -10.425    -0.059     -4.82
   CaHSO4+         2.325e-13   2.245e-13   -12.634   -12.649    -0.015     (0)  

------------------------------Saturation indices-------------------------------

  Phase               SI** log IAP   log K(298 K,   1 atm)

  Anhydrite        -4.24     -8.52   -4.28  CaSO4
  Aragonite        -2.06    -10.39   -8.34  CaCO3
  Arcanite        -12.15    -14.03   -1.88  K2SO4
  Calcite          -1.91    -10.39   -8.48  CaCO3
  CH4(g)         -130.60   -133.41   -2.80  CH4
  CO2(g)           -2.73     -4.20   -1.47  CO2
  Dolomite         -3.95    -21.03  -17.08  CaMg(CO3)2
  Epsomite         -7.02     -8.76   -1.74  MgSO4:7H2O
  Gypsum           -3.93     -8.52   -4.58  CaSO4:2H2O
  H2(g)           -38.45    -41.55   -3.10  H2
  H2O(g)           -1.50     -0.00    1.50  H2O
  Halite           -8.91     -7.34    1.57  NaCl
  Hexahydrite      -7.19     -8.76   -1.57  MgSO4:6H2O
  Kieserite        -7.60     -8.76   -1.16  MgSO4:H2O
  Mirabilite      -10.47    -11.71   -1.24  Na2SO4:10H2O
  O2(g)            -6.39     -9.28   -2.89  O2
  Sylvite          -9.40     -8.50    0.90  KCl
  Thenardite      -11.41    -11.71   -0.30  Na2SO4

**For a gas, SI = log10(fugacity). Fugacity = pressure * phi / 1 atm.
  For ideal gases, phi = 1.

------------------
End of simulation.
------------------

------------------------------------
Reading input data for simulation 2.
------------------------------------

	knobs
		logfile
	use solution 1
	EQUILIBRIUM_PHASES 1  Diss. Cd(NO3)2 to equil. w/otavite
	Otavite          0.0     Cd(NO3)2    0.0089
	END
-----------------------------------------
Beginning of batch-reaction calculations.
-----------------------------------------

Reaction step 1.

Using solution 1.	Synthetic stream water
Using pure phase assemblage 1.	Diss. Cd(NO3)2 to equil. w/otavite

-------------------------------Phase assemblage--------------------------------

                                                      Moles in assemblage
Phase               SI  log IAP  log K(T, P)   Initial       Final       Delta

Otavite           0.00   -12.10    -12.10
	 Cd(NO3)2           is reactant       8.900e-03   8.897e-03  -2.835e-06

-----------------------------Solution composition------------------------------

	Elements           Molality       Moles

	C                 5.300e-04   5.300e-04
	Ca                1.400e-04   1.400e-04
	Cd                2.835e-06   2.835e-06
	Cl                1.700e-04   1.700e-04
	K                 2.000e-05   2.000e-05
	Mg                8.000e-05   8.000e-05
	N                 5.671e-06   5.671e-06
	Na                2.900e-04   2.900e-04
	S                 3.000e-05   3.000e-05

----------------------------Description of solution----------------------------

                                       pH  =   7.200      Charge balance
                                       pe  =  12.031      Adjusted to redox equilibrium
      Specific Conductance (µS/cm,  25°C)  = 78
                          Density (g/cm³)  =   0.99709
                               Volume (L)  =   1.00298
                        Viscosity (mPa s)  =   0.89071
                        Activity of water  =   1.000
                 Ionic strength (mol/kgw)  =   9.764e-04
                       Mass of water (kg)  =   1.000e+00
                 Total alkalinity (eq/kg)  =   4.669e-04
                       Total CO2 (mol/kg)  =   5.300e-04
                         Temperature (°C)  =  25.00
                  Electrical balance (eq)  =   5.315e-05
 Percent error, 100*(Cat-|An|)/(Cat+|An|)  =   3.66
                               Iterations  =  13
                                  Total H  = 1.110129e+02
                                  Total O  = 5.550788e+01

----------------------------Distribution of species----------------------------

                                               Log       Log       Log    mole V
   Species          Molality    Activity  Molality  Activity     Gamma   cm³/mol

   OH-             1.661e-07   1.604e-07    -6.780    -6.795    -0.015     -4.11
   H+              6.527e-08   6.311e-08    -7.185    -7.200    -0.015      0.00
   H2O             5.551e+01   1.000e+00     1.744    -0.000     0.000     18.07
C(-4)         0.000e+00
   CH4             0.000e+00   0.000e+00  -133.655  -133.655     0.000     35.46
C(4)          5.300e-04
   HCO3-           4.651e-04   4.492e-04    -3.332    -3.348    -0.015     24.58
   CO2             6.373e-05   6.374e-05    -4.196    -4.196     0.000     34.43
   CO3-2           3.836e-07   3.338e-07    -6.416    -6.477    -0.060     -3.93
   MgHCO3+         3.752e-07   3.622e-07    -6.426    -6.441    -0.015      5.48
   CaHCO3+         2.172e-07   2.098e-07    -6.663    -6.678    -0.015      9.67
   NaHCO3          1.094e-07   1.095e-07    -6.961    -6.961     0.000     31.73
   CaCO3           6.787e-08   6.789e-08    -7.168    -7.168     0.000    -14.60
   CdHCO3+         3.502e-08   3.380e-08    -7.456    -7.471    -0.015     (0)  
   MgCO3           2.194e-08   2.195e-08    -7.659    -7.659     0.000    -17.09
   KHCO3           3.871e-09   3.871e-09    -8.412    -8.412     0.000     41.03
   CdCO3           6.308e-10   6.310e-10    -9.200    -9.200     0.000     (0)  
   (CO2)2          7.455e-11   7.457e-11   -10.128   -10.127     0.000     68.87
   Cd(CO3)2-2      7.667e-13   6.659e-13   -12.115   -12.177    -0.061     (0)  
Ca            1.400e-04
   Ca+2            1.392e-04   1.211e-04    -3.856    -3.917    -0.060    -18.14
   CaSO4           5.403e-07   5.405e-07    -6.267    -6.267     0.000      7.50
   CaHCO3+         2.172e-07   2.098e-07    -6.663    -6.678    -0.015      9.67
   CaCO3           6.787e-08   6.789e-08    -7.168    -7.168     0.000    -14.60
   CaOH+           3.298e-10   3.184e-10    -9.482    -9.497    -0.015     (0)  
   CaHSO4+         2.323e-13   2.242e-13   -12.634   -12.649    -0.015     (0)  
Cd            2.835e-06
   Cd+2            2.740e-06   2.380e-06    -5.562    -5.623    -0.061    -18.75
   CdCl+           3.863e-08   3.729e-08    -7.413    -7.428    -0.015      5.83
   CdHCO3+         3.502e-08   3.380e-08    -7.456    -7.471    -0.015     (0)  
   CdSO4           1.722e-08   1.723e-08    -7.764    -7.764     0.000     78.05
   CdOH+           3.249e-09   3.136e-09    -8.488    -8.504    -0.015     (0)  
   CdCO3           6.308e-10   6.310e-10    -9.200    -9.200     0.000     (0)  
   CdOHCl          2.440e-10   2.440e-10    -9.613    -9.613     0.000     (0)  
   CdNO3+          3.389e-11   3.271e-11   -10.470   -10.485    -0.015     17.52
   CdCl2           2.550e-11   2.550e-11   -10.594   -10.593     0.000     23.14
   Cd(SO4)2-2      5.459e-12   4.742e-12   -11.263   -11.324    -0.061   -105.65
   Cd(OH)2         2.668e-12   2.669e-12   -11.574   -11.574     0.000     (0)  
   Cd(CO3)2-2      7.667e-13   6.659e-13   -12.115   -12.177    -0.061     (0)  
   Cd2OH+3         5.021e-14   3.656e-14   -13.299   -13.437    -0.138     (0)  
   CdCl3-          2.735e-15   2.640e-15   -14.563   -14.578    -0.015     69.32
   Cd(OH)3-        4.914e-18   4.744e-18   -17.309   -17.324    -0.015     (0)  
   Cd(OH)4-2       7.714e-25   6.699e-25   -24.113   -24.174    -0.061     (0)  
   CdHS+           0.000e+00   0.000e+00  -127.438  -127.453    -0.015     (0)  
   Cd(HS)2         0.000e+00   0.000e+00  -253.093  -253.093     0.000     (0)  
   Cd(HS)3-        0.000e+00   0.000e+00  -382.898  -382.913    -0.015     (0)  
   Cd(HS)4-2       0.000e+00   0.000e+00  -512.662  -512.723    -0.061     (0)  
Cl            1.700e-04
   Cl-             1.700e-04   1.641e-04    -3.770    -3.785    -0.015     18.07
   CdCl+           3.863e-08   3.729e-08    -7.413    -7.428    -0.015      5.83
   CdOHCl          2.440e-10   2.440e-10    -9.613    -9.613     0.000     (0)  
   CdCl2           2.550e-11   2.550e-11   -10.594   -10.593     0.000     23.14
   HCl             3.564e-12   3.567e-12   -11.448   -11.448     0.000     (0)  
   CdCl3-          2.735e-15   2.640e-15   -14.563   -14.578    -0.015     69.32
H(0)          0.000e+00
   H2              0.000e+00   0.000e+00   -41.613   -41.612     0.000     28.61
K             2.000e-05
   K+              1.999e-05   1.929e-05    -4.699    -4.715    -0.015      9.01
   KSO4-           7.626e-09   7.368e-09    -8.118    -8.133    -0.015     14.14
   KHCO3           3.871e-09   3.871e-09    -8.412    -8.412     0.000     41.03
Mg            8.000e-05
   Mg+2            7.915e-05   6.891e-05    -4.102    -4.162    -0.060    -21.82
   MgSO4           4.527e-07   4.529e-07    -6.344    -6.344     0.000     -7.92
   MgHCO3+         3.752e-07   3.622e-07    -6.426    -6.441    -0.015      5.48
   MgCO3           2.194e-08   2.195e-08    -7.659    -7.659     0.000    -17.09
   MgOH+           4.103e-09   3.964e-09    -8.387    -8.402    -0.015     (0)  
   Mg(SO4)2-2      4.293e-11   3.744e-11   -10.367   -10.427    -0.059     -4.78
N(-3)         0.000e+00
   NH4+            0.000e+00   0.000e+00   -54.419   -54.434    -0.016     17.89
   NH3             0.000e+00   0.000e+00   -56.479   -56.479     0.000     24.42
   NH4SO4-         0.000e+00   0.000e+00   -57.807   -57.823    -0.016     -7.37
N(0)          1.398e-10
   N2              6.989e-11   6.991e-11   -10.156   -10.155     0.000     29.29
N(3)          7.265e-16
   NO2-            7.265e-16   7.010e-16   -15.139   -15.154    -0.015     24.97
N(5)          5.670e-06
   NO3-            5.670e-06   5.472e-06    -5.246    -5.262    -0.015     29.49
   CdNO3+          3.389e-11   3.271e-11   -10.470   -10.485    -0.015     17.52
Na            2.900e-04
   Na+             2.898e-04   2.798e-04    -3.538    -3.553    -0.015     -1.48
   NaSO4-          1.184e-07   1.143e-07    -6.927    -6.942    -0.015    -20.99
   NaHCO3          1.094e-07   1.095e-07    -6.961    -6.961     0.000     31.73
O(0)          1.399e-09
   O2              6.994e-10   6.996e-10    -9.155    -9.155     0.000     30.40
S(-2)         0.000e+00
   CdHS+           0.000e+00   0.000e+00  -127.438  -127.453    -0.015     (0)  
   HS-             0.000e+00   0.000e+00  -131.984  -132.000    -0.015     20.60
   H2S             0.000e+00   0.000e+00  -132.258  -132.258     0.000     36.27
   S-2             0.000e+00   0.000e+00  -137.657  -137.718    -0.061     (0)  
   Cd(HS)2         0.000e+00   0.000e+00  -253.093  -253.093     0.000     (0)  
   (H2S)2          0.000e+00   0.000e+00  -265.794  -265.794     0.000     30.09
   Cd(HS)3-        0.000e+00   0.000e+00  -382.898  -382.913    -0.015     (0)  
   Cd(HS)4-2       0.000e+00   0.000e+00  -512.662  -512.723    -0.061     (0)  
S(6)          3.000e-05
   SO4-2           2.886e-05   2.510e-05    -4.540    -4.600    -0.061     15.58
   CaSO4           5.403e-07   5.405e-07    -6.267    -6.267     0.000      7.50
   MgSO4           4.527e-07   4.529e-07    -6.344    -6.344     0.000     -7.92
   NaSO4-          1.184e-07   1.143e-07    -6.927    -6.942    -0.015    -20.99
   CdSO4           1.722e-08   1.723e-08    -7.764    -7.764     0.000     78.05
   KSO4-           7.626e-09   7.368e-09    -8.118    -8.133    -0.015     14.14
   HSO4-           1.595e-10   1.540e-10    -9.797    -9.812    -0.015     40.28
   Mg(SO4)2-2      4.293e-11   3.744e-11   -10.367   -10.427    -0.059     -4.78
   Cd(SO4)2-2      5.459e-12   4.742e-12   -11.263   -11.324    -0.061   -105.65
   CaHSO4+         2.323e-13   2.242e-13   -12.634   -12.649    -0.015     (0)  
   NH4SO4-         0.000e+00   0.000e+00   -57.807   -57.823    -0.016     -7.37

------------------------------Saturation indices-------------------------------

  Phase               SI** log IAP   log K(298 K,   1 atm)

  Anhydrite        -4.24     -8.52   -4.28  CaSO4
  Aragonite        -2.06    -10.39   -8.34  CaCO3
  Arcanite        -12.15    -14.03   -1.88  K2SO4
  Calcite          -1.91    -10.39   -8.48  CaCO3
  Cd(OH)2          -4.87      8.78   13.65  Cd(OH)2
  CdSO4           -10.12    -10.22   -0.10  CdSO4
  CH4(g)         -130.85   -133.65   -2.80  CH4
  CO2(g)           -2.73     -4.20   -1.47  CO2
  Dolomite         -3.95    -21.03  -17.08  CaMg(CO3)2
  Epsomite         -7.02     -8.76   -1.74  MgSO4:7H2O
  Gypsum           -3.93     -8.52   -4.58  CaSO4:2H2O
  H2(g)           -38.51    -41.61   -3.10  H2
  H2O(g)           -1.50     -0.00    1.50  H2O
  H2S(g)         -131.26   -139.20   -7.94  H2S
  Halite           -8.91     -7.34    1.57  NaCl
  Hexahydrite      -7.20     -8.76   -1.57  MgSO4:6H2O
  Kieserite        -7.60     -8.76   -1.16  MgSO4:H2O
  Mirabilite      -10.47    -11.71   -1.24  Na2SO4:10H2O
  N2(g)            -6.98    -10.16   -3.18  N2
  NH3(g)          -58.27    -56.48    1.80  NH3
  O2(g)            -6.26     -9.16   -2.89  O2
  Otavite           0.00    -12.10  -12.10  CdCO3
  Sulfur          -98.68    -93.80    4.88  S
  Sylvite          -9.40     -8.50    0.90  KCl
  Thenardite      -11.41    -11.71   -0.30  Na2SO4

**For a gas, SI = log10(fugacity). Fugacity = pressure * phi / 1 atm.
  For ideal gases, phi = 1.

------------------
End of simulation.
------------------

------------------------------------
Reading input data for simulation 3.
------------------------------------

