   Input file: Barite_tc
  Output file: Barite_tc.out
Database file: ../database/phreeqc.dat

------------------
Reading data base.
------------------

	SOLUTION_MASTER_SPECIES
	SOLUTION_SPECIES
	PHASES
	EXCHANGE_MASTER_SPECIES
	EXCHANGE_SPECIES
	SURFACE_MASTER_SPECIES
	SURFACE_SPECIES
	RATES
	END
------------------------------------
Reading input data for simulation 1.
------------------------------------

	DATABASE ../database/phreeqc.dat
	SOLUTION 1
	 pH 7 charge
	 temp 50
	 pressure 493
	EQUILIBRIUM_PHASES
	 Barite
	REACTION_TEMPERATURE
	 25 250 in 15
	USER_GRAPH
	 -plot_csv barite_tc.dat
	 -axis_scale y_axis 10e-6 30e-6
	 -chart_title "Barite solubility at 500 bar"
	 axis_titles "Temperature / oC" "Barite solubility / M"
	 10 plot_xy tc, tot("Ba"), color = Red, symbol = None
	END
-------------------------------------------
Beginning of initial solution calculations.
-------------------------------------------

Initial solution 1.	

-----------------------------Solution composition------------------------------

	Elements           Molality       Moles

	Pure water     

----------------------------Description of solution----------------------------

                                       pH  =   6.550      Charge balance
                                       pe  =   4.000    
       Specific Conductance (uS/cm, 50 oC) = 0
                          Density (g/cm3)  =   1.00857
                        Activity of water  =   1.000
                           Ionic strength  =   2.820e-07
                       Mass of water (kg)  =   1.000e+00
                 Total alkalinity (eq/kg)  =  -1.473e-17
                    Total carbon (mol/kg)  =   0.000e+00
                       Total CO2 (mol/kg)  =   0.000e+00
                      Temperature (deg C)  =  50.00
                           Pressure (atm)  = 493.00
                  Electrical balance (eq)  =   1.473e-17
 Percent error, 100*(Cat-|An|)/(Cat+|An|)  =   0.00
                               Iterations  =   4
                                  Total H  = 1.110124e+02
                                  Total O  = 5.550622e+01

----------------------------Distribution of species----------------------------

                                               Log       Log       Log    mole V
   Species          Molality    Activity  Molality  Activity     Gamma   cm3/mol

   H+              2.820e-07   2.818e-07    -6.550    -6.550    -0.000      0.00
   OH-             2.820e-07   2.818e-07    -6.550    -6.550    -0.000     -2.18
   H2O             5.551e+01   1.000e+00     1.744    -0.000     0.000     17.86
H(0)          5.277e-25
   H2              2.639e-25   2.639e-25   -24.579   -24.579     0.000     28.39
O(0)          1.268e-36
   O2              6.340e-37   6.340e-37   -36.198   -36.198     0.000     30.96

------------------------------Saturation indices-------------------------------

	Phase               SI   log IAP   log K(323 K, 493 atm)

	H2(g)           -21.44    -24.58   -3.14  H2
	H2O(g)           -0.77     -0.00    0.77  H2O
	O2(g)           -32.88    -36.20   -3.32  O2


-----------------------------------------
Beginning of batch-reaction calculations.
-----------------------------------------

Reaction step 1.

Using solution 1.	
Using pure phase assemblage 1.	
Using temperature 1.	

-------------------------------Phase assemblage--------------------------------

                                                      Moles in assemblage
Phase               SI  log IAP  log K(T, P)   Initial       Final       Delta

Barite            0.38    -9.59     -9.97    1.000e+01   1.000e+01  -1.670e-05

-----------------------------Solution composition------------------------------

	Elements           Molality       Moles

	Ba                1.670e-05   1.670e-05
	S                 1.670e-05   1.670e-05

----------------------------Description of solution----------------------------

                                       pH  =   6.911      Charge balance
                                       pe  =  10.423      Adjusted to redox equilibrium
       Specific Conductance (uS/cm, 25 oC) = 4
                          Density (g/cm3)  =   1.01844
                        Activity of water  =   1.000
                           Ionic strength  =   6.643e-05
                       Mass of water (kg)  =   1.000e+00
                 Total alkalinity (eq/kg)  =  -2.271e-17
                    Total carbon (mol/kg)  =   0.000e+00
                       Total CO2 (mol/kg)  =   0.000e+00
                      Temperature (deg C)  =  25.00
                           Pressure (atm)  = 493.00
                  Electrical balance (eq)  =   5.928e-16
 Percent error, 100*(Cat-|An|)/(Cat+|An|)  =   0.00
                               Iterations  =  12
                                  Total H  = 1.110124e+02
                                  Total O  = 5.550628e+01

----------------------------Distribution of species----------------------------

                                               Log       Log       Log    mole V
   Species          Molality    Activity  Molality  Activity     Gamma   cm3/mol

   OH-             1.239e-07   1.227e-07    -6.907    -6.911    -0.004     -2.52
   H+              1.237e-07   1.226e-07    -6.908    -6.911    -0.004      0.00
   H2O             5.551e+01   1.000e+00     1.744    -0.000     0.000     17.69
Ba            1.670e-05
   Ba+2            1.658e-05   1.598e-05    -4.781    -4.797    -0.016     -9.04
   BaSO4           1.279e-07   1.279e-07    -6.893    -6.893     0.000     (0)  
   BaOH+           4.456e-12   4.415e-12   -11.351   -11.355    -0.004     (0)  
H(0)          1.716e-38
   H2              8.580e-39   8.580e-39   -38.067   -38.067     0.000     28.40
O(0)          4.045e-17
   O2              2.023e-17   2.023e-17   -16.694   -16.694     0.000     29.77
S(-2)         0.000e+00
   HS-             0.000e+00   0.000e+00  -117.372  -117.376    -0.004     20.79
   H2S             0.000e+00   0.000e+00  -117.483  -117.483     0.000     36.40
   S-2             0.000e+00   0.000e+00  -122.722  -122.738    -0.016     (0)  
S(6)          1.670e-05
   SO4-2           1.658e-05   1.597e-05    -4.781    -4.797    -0.016     17.75
   BaSO4           1.279e-07   1.279e-07    -6.893    -6.893     0.000     (0)  
   HSO4-           1.379e-10   1.367e-10    -9.860    -9.864    -0.004     34.24

------------------------------Saturation indices-------------------------------

	Phase               SI   log IAP   log K(298 K, 493 atm)

	Barite            0.00     -9.59   -9.59  BaSO4
	H2(g)           -34.97    -38.07   -3.10  H2
	H2O(g)           -1.35     -0.00    1.35  H2O
	H2S(g)         -116.76   -124.29   -7.53  H2S
	O2(g)           -13.49    -16.69   -3.20  O2
	Sulfur          -88.16    -82.81    5.34  S


Reaction step 2.

Using solution 1.	
Using pure phase assemblage 1.	
Using temperature 1.	

-------------------------------Phase assemblage--------------------------------

                                                      Moles in assemblage
Phase               SI  log IAP  log K(T, P)   Initial       Final       Delta

Barite           -0.01    -9.42     -9.40    1.000e+01   1.000e+01  -2.061e-05

-----------------------------Solution composition------------------------------

	Elements           Molality       Moles

	Ba                2.061e-05   2.061e-05
	S                 2.061e-05   2.061e-05

----------------------------Description of solution----------------------------

                                       pH  =   6.669      Charge balance
                                       pe  =   9.403      Adjusted to redox equilibrium
       Specific Conductance (uS/cm, 41 oC) = 8
                          Density (g/cm3)  =   1.01249
                        Activity of water  =   1.000
                           Ionic strength  =   8.188e-05
                       Mass of water (kg)  =   1.000e+00
                 Total alkalinity (eq/kg)  =  -8.088e-18
                    Total carbon (mol/kg)  =   0.000e+00
                       Total CO2 (mol/kg)  =   0.000e+00
                      Temperature (deg C)  =  41.07
                           Pressure (atm)  = 493.00
                  Electrical balance (eq)  =   2.049e-15
 Percent error, 100*(Cat-|An|)/(Cat+|An|)  =   0.00
                               Iterations  =  11
                                  Total H  = 1.110124e+02
                                  Total O  = 5.550630e+01

----------------------------Distribution of species----------------------------

                                               Log       Log       Log    mole V
   Species          Molality    Activity  Molality  Activity     Gamma   cm3/mol

   OH-             2.167e-07   2.144e-07    -6.664    -6.669    -0.005     -2.17
   H+              2.163e-07   2.140e-07    -6.665    -6.669    -0.005      0.00
   H2O             5.551e+01   1.000e+00     1.744    -0.000     0.000     17.79
Ba            2.061e-05
   Ba+2            2.042e-05   1.958e-05    -4.690    -4.708    -0.018     -8.38
   BaSO4           1.920e-07   1.920e-07    -6.717    -6.717     0.000     (0)  
   BaOH+           3.132e-12   3.099e-12   -11.504   -11.509    -0.005     (0)  
H(0)          5.060e-36
   H2              2.530e-36   2.530e-36   -35.597   -35.597     0.000     28.39
O(0)          4.046e-17
   O2              2.023e-17   2.023e-17   -16.694   -16.694     0.000     30.60
S(-2)         0.000e+00
   HS-             0.000e+00   0.000e+00  -109.170  -109.175    -0.005     21.12
   H2S             0.000e+00   0.000e+00  -109.209  -109.209     0.000     36.45
   S-2             0.000e+00   0.000e+00  -114.342  -114.360    -0.018     (0)  
S(6)          2.061e-05
   SO4-2           2.042e-05   1.957e-05    -4.690    -4.708    -0.018     18.74
   BaSO4           1.920e-07   1.920e-07    -6.717    -6.717     0.000     (0)  
   HSO4-           4.391e-10   4.345e-10    -9.357    -9.362    -0.005     34.85

------------------------------Saturation indices-------------------------------

	Phase               SI   log IAP   log K(314 K, 493 atm)

	Barite           -0.00     -9.42   -9.42  BaSO4
	H2(g)           -32.47    -35.60   -3.13  H2
	H2O(g)           -0.97     -0.00    0.97  H2O
	H2S(g)         -108.32   -115.84   -7.53  H2S
	O2(g)           -13.41    -16.69   -3.28  O2
	Sulfur          -82.02    -77.06    4.96  S


Reaction step 3.

Using solution 1.	
Using pure phase assemblage 1.	
Using temperature 1.	

-------------------------------Phase assemblage--------------------------------

                                                      Moles in assemblage
Phase               SI  log IAP  log K(T, P)   Initial       Final       Delta

Barite           -0.00    -9.30     -9.30    1.000e+01   1.000e+01  -2.373e-05

-----------------------------Solution composition------------------------------

	Elements           Molality       Moles

	Ba                2.373e-05   2.373e-05
	S                 2.373e-05   2.373e-05

----------------------------Description of solution----------------------------

                                       pH  =   6.463      Charge balance
                                       pe  =   8.471      Adjusted to redox equilibrium
       Specific Conductance (uS/cm, 57 oC) = 12
                          Density (g/cm3)  =   1.00517
                        Activity of water  =   1.000
                           Ionic strength  =   9.425e-05
                       Mass of water (kg)  =   1.000e+00
                 Total alkalinity (eq/kg)  =   2.453e-15
                    Total carbon (mol/kg)  =   0.000e+00
                       Total CO2 (mol/kg)  =   0.000e+00
                      Temperature (deg C)  =  57.14
                           Pressure (atm)  = 493.00
                  Electrical balance (eq)  =  -2.011e-13
 Percent error, 100*(Cat-|An|)/(Cat+|An|)  =  -0.00
                               Iterations  =  10
                                  Total H  = 1.110124e+02
                                  Total O  = 5.550631e+01

----------------------------Distribution of species----------------------------

                                               Log       Log       Log    mole V
   Species          Molality    Activity  Molality  Activity     Gamma   cm3/mol

   OH-             3.498e-07   3.457e-07    -6.456    -6.461    -0.005     -2.25
   H+              3.485e-07   3.446e-07    -6.458    -6.463    -0.005      0.00
   H2O             5.551e+01   1.000e+00     1.744    -0.000     0.000     17.92
Ba            2.373e-05
   Ba+2            2.348e-05   2.241e-05    -4.629    -4.650    -0.020     -8.01
   BaSO4           2.517e-07   2.517e-07    -6.599    -6.599     0.000     (0)  
   BaOH+           2.230e-12   2.204e-12   -11.652   -11.657    -0.005     (0)  
H(0)          8.598e-34
   H2              4.299e-34   4.299e-34   -33.367   -33.367     0.000     28.38
O(0)          4.047e-17
   O2              2.023e-17   2.023e-17   -16.694   -16.694     0.000     31.22
S(-2)         0.000e+00
   H2S             0.000e+00   0.000e+00  -101.752  -101.752     0.000     36.48
   HS-             0.000e+00   0.000e+00  -101.801  -101.807    -0.005     21.15
   S-2             0.000e+00   0.000e+00  -106.794  -106.814    -0.020     (0)  
S(6)          2.373e-05
   SO4-2           2.347e-05   2.241e-05    -4.629    -4.650    -0.020     18.68
   BaSO4           2.517e-07   2.517e-07    -6.599    -6.599     0.000     (0)  
   HSO4-           1.230e-09   1.216e-09    -8.910    -8.915    -0.005     35.11

------------------------------Saturation indices-------------------------------

	Phase               SI   log IAP   log K(330 K, 493 atm)

	Barite           -0.00     -9.30   -9.30  BaSO4
	H2(g)           -30.23    -33.37   -3.14  H2
	H2O(g)           -0.63     -0.00    0.63  H2O
	H2S(g)         -100.75   -108.27   -7.52  H2S
	O2(g)           -13.36    -16.69   -3.34  O2
	Sulfur          -76.51    -71.88    4.62  S


Reaction step 4.

Using solution 1.	
Using pure phase assemblage 1.	
Using temperature 1.	

-------------------------------Phase assemblage--------------------------------

                                                      Moles in assemblage
Phase               SI  log IAP  log K(T, P)   Initial       Final       Delta

Barite            0.01    -9.23     -9.24    1.000e+01   1.000e+01  -2.572e-05

-----------------------------Solution composition------------------------------

	Elements           Molality       Moles

	Ba                2.572e-05   2.572e-05
	S                 2.572e-05   2.572e-05

----------------------------Description of solution----------------------------

                                       pH  =   6.286      Charge balance
                                       pe  =   7.762      Adjusted to redox equilibrium
       Specific Conductance (uS/cm, 73 oC) = 17
                          Density (g/cm3)  =   0.99670
                        Activity of water  =   1.000
                           Ionic strength  =   1.022e-04
                       Mass of water (kg)  =   1.000e+00
                 Total alkalinity (eq/kg)  =   2.218e-16
                    Total carbon (mol/kg)  =   0.000e+00
                       Total CO2 (mol/kg)  =   0.000e+00
                      Temperature (deg C)  =  73.21
                           Pressure (atm)  = 493.00
                  Electrical balance (eq)  =   3.815e-16
 Percent error, 100*(Cat-|An|)/(Cat+|An|)  =   0.00
                               Iterations  =  10
                                  Total H  = 1.110124e+02
                                  Total O  = 5.550632e+01

----------------------------Distribution of species----------------------------

                                               Log       Log       Log    mole V
   Species          Molality    Activity  Molality  Activity     Gamma   cm3/mol

   OH-             5.276e-07   5.210e-07    -6.278    -6.283    -0.005     -2.66
   H+              5.245e-07   5.181e-07    -6.280    -6.286    -0.005      0.00
   H2O             5.551e+01   1.000e+00     1.744    -0.000     0.000     18.08
Ba            2.572e-05
   Ba+2            2.543e-05   2.419e-05    -4.595    -4.616    -0.022     -7.84
   BaSO4           2.932e-07   2.932e-07    -6.533    -6.533     0.000     (0)  
   BaOH+           1.602e-12   1.582e-12   -11.795   -11.801    -0.005     (0)  
H(0)          4.595e-32
   H2              2.297e-32   2.297e-32   -31.639   -31.639     0.000     28.38
O(0)          1.581e-16
   O2              7.907e-17   7.907e-17   -16.102   -16.102     0.000     31.74
S(-2)         0.000e+00
   H2S             0.000e+00   0.000e+00   -96.181   -96.181     0.000     36.51
   HS-             0.000e+00   0.000e+00   -96.334   -96.339    -0.005     20.94
   S-2             0.000e+00   0.000e+00  -101.148  -101.170    -0.022     (0)  
S(6)          2.572e-05
   SO4-2           2.543e-05   2.419e-05    -4.595    -4.616    -0.022     17.82
   BaSO4           2.932e-07   2.932e-07    -6.533    -6.533     0.000     (0)  
   HSO4-           3.093e-09   3.054e-09    -8.510    -8.515    -0.005     35.11

------------------------------Saturation indices-------------------------------

	Phase               SI   log IAP   log K(346 K, 493 atm)

	Barite           -0.00     -9.23   -9.23  BaSO4
	H2(g)           -28.50    -31.64   -3.13  H2
	H2O(g)           -0.32     -0.00    0.32  H2O
	H2S(g)          -95.10   -102.62   -7.52  H2S
	O2(g)           -12.74    -16.10   -3.37  O2
	Sulfur          -72.41    -68.08    4.32  S


Reaction step 5.

Using solution 1.	
Using pure phase assemblage 1.	
Using temperature 1.	

-------------------------------Phase assemblage--------------------------------

                                                      Moles in assemblage
Phase               SI  log IAP  log K(T, P)   Initial       Final       Delta

Barite            0.01    -9.21     -9.22    1.000e+01   1.000e+01  -2.650e-05

-----------------------------Solution composition------------------------------

	Elements           Molality       Moles

	Ba                2.650e-05   2.650e-05
	S                 2.650e-05   2.650e-05

----------------------------Description of solution----------------------------

                                       pH  =   6.134      Charge balance
                                       pe  =   6.824      Adjusted to redox equilibrium
       Specific Conductance (uS/cm, 89 oC) = 21
                          Density (g/cm3)  =   0.98720
                        Activity of water  =   1.000
                           Ionic strength  =   1.055e-04
                       Mass of water (kg)  =   1.000e+00
                 Total alkalinity (eq/kg)  =  -1.472e-17
                    Total carbon (mol/kg)  =   0.000e+00
                       Total CO2 (mol/kg)  =   0.000e+00
                      Temperature (deg C)  =  89.29
                           Pressure (atm)  = 493.00
                  Electrical balance (eq)  =   1.451e-17
 Percent error, 100*(Cat-|An|)/(Cat+|An|)  =   0.00
                               Iterations  =  10
                                  Total H  = 1.110124e+02
                                  Total O  = 5.550632e+01

----------------------------Distribution of species----------------------------

                                               Log       Log       Log    mole V
   Species          Molality    Activity  Molality  Activity     Gamma   cm3/mol

   OH-             7.519e-07   7.420e-07    -6.124    -6.130    -0.006     -3.38
   H+              7.448e-07   7.352e-07    -6.128    -6.134    -0.006      0.00
   H2O             5.551e+01   1.000e+00     1.744    -0.000     0.000     18.25
Ba            2.650e-05
   Ba+2            2.619e-05   2.485e-05    -4.582    -4.605    -0.023     -7.82
   BaSO4           3.093e-07   3.093e-07    -6.510    -6.510     0.000     (0)  
   BaOH+           1.160e-12   1.145e-12   -11.935   -11.941    -0.006     (0)  
H(0)          6.353e-30
   H2              3.177e-30   3.177e-30   -29.498   -29.498     0.000     28.37
O(0)          4.046e-17
   O2              2.023e-17   2.023e-17   -16.694   -16.694     0.000     32.20
S(-2)         0.000e+00
   H2S             0.000e+00   0.000e+00   -88.848   -88.848     0.000     36.53
   HS-             0.000e+00   0.000e+00   -89.119   -89.124    -0.006     20.52
   S-2             0.000e+00   0.000e+00   -93.758   -93.781    -0.023     (0)  
S(6)          2.650e-05
   SO4-2           2.618e-05   2.484e-05    -4.582    -4.605    -0.023     16.24
   BaSO4           3.093e-07   3.093e-07    -6.510    -6.510     0.000     (0)  
   HSO4-           7.086e-09   6.993e-09    -8.150    -8.155    -0.006     34.90

------------------------------Saturation indices-------------------------------

	Phase               SI   log IAP   log K(362 K, 493 atm)

	Barite            0.00     -9.21   -9.21  BaSO4
	H2(g)           -26.38    -29.50   -3.12  H2
	H2O(g)           -0.04     -0.00    0.04  H2O
	H2S(g)          -87.73    -95.26   -7.53  H2S
	O2(g)           -13.32    -16.69   -3.38  O2
	Sulfur          -66.99    -62.93    4.05  S


Reaction step 6.

Using solution 1.	
Using pure phase assemblage 1.	
Using temperature 1.	

-------------------------------Phase assemblage--------------------------------

                                                      Moles in assemblage
Phase               SI  log IAP  log K(T, P)   Initial       Final       Delta

Barite            0.02    -9.22     -9.24    1.000e+01   1.000e+01  -2.616e-05

-----------------------------Solution composition------------------------------

	Elements           Molality       Moles

	Ba                2.616e-05   2.616e-05
	S                 2.616e-05   2.616e-05

----------------------------Description of solution----------------------------

                                       pH  =   6.003      Charge balance
                                       pe  =   6.092      Adjusted to redox equilibrium
       Specific Conductance (uS/cm, 105 oC) = 26
                          Density (g/cm3)  =   0.97671
                        Activity of water  =   1.000
                           Ionic strength  =   1.044e-04
                       Mass of water (kg)  =   1.000e+00
                 Total alkalinity (eq/kg)  =  -1.471e-17
                    Total carbon (mol/kg)  =   0.000e+00
                       Total CO2 (mol/kg)  =   0.000e+00
                      Temperature (deg C)  = 105.36
                           Pressure (atm)  = 493.00
                  Electrical balance (eq)  =   1.390e-17
 Percent error, 100*(Cat-|An|)/(Cat+|An|)  =   0.00
                               Iterations  =   9
                                  Total H  = 1.110124e+02
                                  Total O  = 5.550632e+01

----------------------------Distribution of species----------------------------

                                               Log       Log       Log    mole V
   Species          Molality    Activity  Molality  Activity     Gamma   cm3/mol

   OH-             1.021e-06   1.007e-06    -5.991    -5.997    -0.006     -4.40
   H+              1.006e-06   9.925e-07    -5.997    -6.003    -0.006      0.00
   H2O             5.551e+01   1.000e+00     1.744    -0.000     0.000     18.45
Ba            2.616e-05
   Ba+2            2.586e-05   2.449e-05    -4.587    -4.611    -0.024     -7.93
   BaSO4           3.005e-07   3.005e-07    -6.522    -6.522     0.000     (0)  
   BaOH+           8.477e-13   8.362e-13   -12.072   -12.078    -0.006     (0)  
H(0)          3.100e-28
   H2              1.550e-28   1.550e-28   -27.810   -27.810     0.000     28.37
O(0)          4.046e-17
   O2              2.023e-17   2.023e-17   -16.694   -16.694     0.000     32.64
S(-2)         0.000e+00
   H2S             0.000e+00   0.000e+00   -83.229   -83.229     0.000     36.54
   HS-             0.000e+00   0.000e+00   -83.629   -83.635    -0.006     19.90
   S-2             0.000e+00   0.000e+00   -88.095   -88.118    -0.024     (0)  
S(6)          2.616e-05
   SO4-2           2.585e-05   2.448e-05    -4.588    -4.611    -0.024     13.95
   BaSO4           3.005e-07   3.005e-07    -6.522    -6.522     0.000     (0)  
   HSO4-           1.498e-08   1.478e-08    -7.824    -7.830    -0.006     34.49

------------------------------Saturation indices-------------------------------

	Phase               SI   log IAP   log K(378 K, 493 atm)

	Barite           -0.00     -9.22   -9.22  BaSO4
	H2(g)           -24.72    -27.81   -3.09  H2
	H2O(g)            0.20     -0.00   -0.20  H2O
	H2S(g)          -82.10    -89.64   -7.54  H2S
	O2(g)           -13.33    -16.69   -3.37  O2
	Sulfur          -62.85    -59.04    3.82  S


Reaction step 7.

Using solution 1.	
Using pure phase assemblage 1.	
Using temperature 1.	

-------------------------------Phase assemblage--------------------------------

                                                      Moles in assemblage
Phase               SI  log IAP  log K(T, P)   Initial       Final       Delta

Barite            0.02    -9.26     -9.29    1.000e+01   1.000e+01  -2.494e-05

-----------------------------Solution composition------------------------------

	Elements           Molality       Moles

	Ba                2.494e-05   2.494e-05
	S                 2.494e-05   2.494e-05

----------------------------Description of solution----------------------------

                                       pH  =   5.892      Charge balance
                                       pe  =   5.554      Adjusted to redox equilibrium
       Specific Conductance (uS/cm, 121 oC) = 29
                          Density (g/cm3)  =   0.96529
                        Activity of water  =   1.000
                           Ionic strength  =   9.994e-05
                       Mass of water (kg)  =   1.000e+00
                 Total alkalinity (eq/kg)  =   9.019e-16
                    Total carbon (mol/kg)  =   0.000e+00
                       Total CO2 (mol/kg)  =   0.000e+00
                      Temperature (deg C)  = 121.43
                           Pressure (atm)  = 493.00
                  Electrical balance (eq)  =   5.082e-15
 Percent error, 100*(Cat-|An|)/(Cat+|An|)  =   0.00
                               Iterations  =   8
                                  Total H  = 1.110124e+02
                                  Total O  = 5.550632e+01

----------------------------Distribution of species----------------------------

                                               Log       Log       Log    mole V
   Species          Molality    Activity  Molality  Activity     Gamma   cm3/mol

   OH-             1.330e-06   1.311e-06    -5.876    -5.882    -0.006     -5.76
   H+              1.300e-06   1.283e-06    -5.886    -5.892    -0.006      0.00
   H2O             5.551e+01   1.000e+00     1.744    -0.000     0.000     18.66
Ba            2.494e-05
   Ba+2            2.467e-05   2.334e-05    -4.608    -4.632    -0.024     -8.16
   BaSO4           2.726e-07   2.726e-07    -6.564    -6.564     0.000     (0)  
   BaOH+           6.251e-13   6.165e-13   -12.204   -12.210    -0.006     (0)  
H(0)          5.707e-27
   H2              2.853e-27   2.854e-27   -26.545   -26.545     0.000     28.36
O(0)          1.508e-16
   O2              7.542e-17   7.542e-17   -16.123   -16.122     0.000     33.09
S(-2)         0.000e+00
   H2S             0.000e+00   0.000e+00   -79.216   -79.216     0.000     36.56
   HS-             0.000e+00   0.000e+00   -79.757   -79.763    -0.006     19.06
   S-2             0.000e+00   0.000e+00   -84.051   -84.075    -0.024     (0)  
S(6)          2.494e-05
   SO4-2           2.464e-05   2.331e-05    -4.608    -4.632    -0.024     10.87
   BaSO4           2.726e-07   2.726e-07    -6.564    -6.564     0.000     (0)  
   HSO4-           2.952e-08   2.911e-08    -7.530    -7.536    -0.006     33.89

------------------------------Saturation indices-------------------------------

	Phase               SI   log IAP   log K(394 K, 493 atm)

	Barite            0.00     -9.26   -9.26  BaSO4
	H2(g)           -23.49    -26.54   -3.06  H2
	H2O(g)            0.43     -0.00   -0.43  H2O
	H2S(g)          -78.10    -85.66   -7.56  H2S
	O2(g)           -12.78    -16.12   -3.34  O2
	Sulfur          -59.92    -56.32    3.60  S


Reaction step 8.

Using solution 1.	
Using pure phase assemblage 1.	
Using temperature 1.	

-------------------------------Phase assemblage--------------------------------

                                                      Moles in assemblage
Phase               SI  log IAP  log K(T, P)   Initial       Final       Delta

Barite            0.03    -9.33     -9.36    1.000e+01   1.000e+01  -2.312e-05

-----------------------------Solution composition------------------------------

	Elements           Molality       Moles

	Ba                2.312e-05   2.312e-05
	S                 2.312e-05   2.312e-05

----------------------------Description of solution----------------------------

                                       pH  =   5.797      Charge balance
                                       pe  =   4.776      Adjusted to redox equilibrium
       Specific Conductance (uS/cm, 137 oC) = 32
                          Density (g/cm3)  =   0.95295
                        Activity of water  =   1.000
                           Ionic strength  =   9.309e-05
                       Mass of water (kg)  =   1.000e+00
                 Total alkalinity (eq/kg)  =  -1.469e-17
                    Total carbon (mol/kg)  =   0.000e+00
                       Total CO2 (mol/kg)  =   0.000e+00
                      Temperature (deg C)  = 137.50
                           Pressure (atm)  = 493.00
                  Electrical balance (eq)  =   1.283e-17
 Percent error, 100*(Cat-|An|)/(Cat+|An|)  =   0.00
                               Iterations  =   8
                                  Total H  = 1.110124e+02
                                  Total O  = 5.550631e+01

----------------------------Distribution of species----------------------------

                                               Log       Log       Log    mole V
   Species          Molality    Activity  Molality  Activity     Gamma   cm3/mol

   OH-             1.671e-06   1.648e-06    -5.777    -5.783    -0.006     -7.50
   H+              1.617e-06   1.595e-06    -5.791    -5.797    -0.006      0.00
   H2O             5.551e+01   1.000e+00     1.744    -0.000     0.000     18.91
Ba            2.312e-05
   Ba+2            2.288e-05   2.164e-05    -4.641    -4.665    -0.024     -8.51
   BaSO4           2.342e-07   2.342e-07    -6.630    -6.630     0.000     (0)  
   BaOH+           4.663e-13   4.598e-13   -12.331   -12.337    -0.006     (0)  
H(0)          2.963e-25
   H2              1.481e-25   1.481e-25   -24.829   -24.829     0.000     28.36
O(0)          4.046e-17
   O2              2.023e-17   2.023e-17   -16.694   -16.694     0.000     33.57
S(-2)         0.000e+00
   H2S             0.000e+00   0.000e+00   -73.327   -73.327     0.000     36.57
   HS-             0.000e+00   0.000e+00   -74.018   -74.024    -0.006     17.98
   S-2             0.000e+00   0.000e+00   -78.141   -78.166    -0.024     (0)  
S(6)          2.312e-05
   SO4-2           2.283e-05   2.159e-05    -4.642    -4.666    -0.024      6.91
   BaSO4           2.342e-07   2.342e-07    -6.630    -6.630     0.000     (0)  
   HSO4-           5.462e-08   5.386e-08    -7.263    -7.269    -0.006     33.08

------------------------------Saturation indices-------------------------------

	Phase               SI   log IAP   log K(410 K, 493 atm)

	Barite           -0.00     -9.33   -9.33  BaSO4
	H2(g)           -21.81    -24.83   -3.02  H2
	H2O(g)            0.63     -0.00   -0.63  H2O
	H2S(g)          -72.24    -79.82   -7.58  H2S
	O2(g)           -13.39    -16.69   -3.31  O2
	Sulfur          -55.59    -52.18    3.41  S


Reaction step 9.

Using solution 1.	
Using pure phase assemblage 1.	
Using temperature 1.	

-------------------------------Phase assemblage--------------------------------

                                                      Moles in assemblage
Phase               SI  log IAP  log K(T, P)   Initial       Final       Delta

Barite            0.03    -9.42     -9.45    1.000e+01   1.000e+01  -2.096e-05

-----------------------------Solution composition------------------------------

	Elements           Molality       Moles

	Ba                2.096e-05   2.096e-05
	S                 2.096e-05   2.096e-05

----------------------------Description of solution----------------------------

                                       pH  =   5.718      Charge balance
                                       pe  =   4.342      Adjusted to redox equilibrium
       Specific Conductance (uS/cm, 153 oC) = 34
                          Density (g/cm3)  =   0.93974
                        Activity of water  =   1.000
                           Ionic strength  =   8.493e-05
                       Mass of water (kg)  =   1.000e+00
                 Total alkalinity (eq/kg)  =  -1.464e-17
                    Total carbon (mol/kg)  =   0.000e+00
                       Total CO2 (mol/kg)  =   0.000e+00
                      Temperature (deg C)  = 153.57
                           Pressure (atm)  = 493.00
                  Electrical balance (eq)  =   1.089e-17
 Percent error, 100*(Cat-|An|)/(Cat+|An|)  =   0.00
                               Iterations  =   8
                                  Total H  = 1.110124e+02
                                  Total O  = 5.550630e+01

----------------------------Distribution of species----------------------------

                                               Log       Log       Log    mole V
   Species          Molality    Activity  Molality  Activity     Gamma   cm3/mol

   OH-             2.036e-06   2.008e-06    -5.691    -5.697    -0.006     -9.69
   H+              1.941e-06   1.914e-06    -5.712    -5.718    -0.006      0.00
   H2O             5.551e+01   1.000e+00     1.744    -0.000     0.000     19.17
Ba            2.096e-05
   Ba+2            2.077e-05   1.965e-05    -4.683    -4.707    -0.024     -9.02
   BaSO4           1.926e-07   1.926e-07    -6.715    -6.715     0.000     (0)  
   BaOH+           3.527e-13   3.478e-13   -12.453   -12.459    -0.006     (0)  
H(0)          2.954e-24
   H2              1.477e-24   1.477e-24   -23.831   -23.831     0.000     28.36
O(0)          1.791e-16
   O2              8.957e-17   8.957e-17   -16.048   -16.048     0.000     34.11
S(-2)         0.000e+00
   H2S             0.000e+00   0.000e+00   -70.237   -70.237     0.000     36.58
   HS-             0.000e+00   0.000e+00   -71.086   -71.092    -0.006     16.59
   S-2             0.000e+00   0.000e+00   -75.038   -75.062    -0.024     (0)  
S(6)          2.096e-05
   SO4-2           2.068e-05   1.956e-05    -4.685    -4.709    -0.024      1.89
   BaSO4           1.926e-07   1.926e-07    -6.715    -6.715     0.000     (0)  
   HSO4-           9.544e-08   9.412e-08    -7.020    -7.026    -0.006     32.01

------------------------------Saturation indices-------------------------------

	Phase               SI   log IAP   log K(426 K, 493 atm)

	Barite           -0.00     -9.42   -9.42  BaSO4
	H2(g)           -20.86    -23.83   -2.97  H2
	H2O(g)            0.82     -0.00   -0.82  H2O
	H2S(g)          -69.20    -76.81   -7.61  H2S
	O2(g)           -12.78    -16.05   -3.26  O2
	Sulfur          -53.36    -50.12    3.24  S


Reaction step 10.

Using solution 1.	
Using pure phase assemblage 1.	
Using temperature 1.	

-------------------------------Phase assemblage--------------------------------

                                                      Moles in assemblage
Phase               SI  log IAP  log K(T, P)   Initial       Final       Delta

Barite            0.04    -9.51     -9.56    1.000e+01   1.000e+01  -1.872e-05

-----------------------------Solution composition------------------------------

	Elements           Molality       Moles

	Ba                1.872e-05   1.872e-05
	S                 1.872e-05   1.872e-05

----------------------------Description of solution----------------------------

                                       pH  =   5.653      Charge balance
                                       pe  =   4.390      Adjusted to redox equilibrium
       Specific Conductance (uS/cm, 169 oC) = 36
                          Density (g/cm3)  =   0.92566
                        Activity of water  =   1.000
                           Ionic strength  =   7.635e-05
                       Mass of water (kg)  =   1.000e+00
                 Total alkalinity (eq/kg)  =  -1.460e-17
                    Total carbon (mol/kg)  =   0.000e+00
                       Total CO2 (mol/kg)  =   0.000e+00
                      Temperature (deg C)  = 169.64
                           Pressure (atm)  = 493.00
                  Electrical balance (eq)  =   2.229e-18
 Percent error, 100*(Cat-|An|)/(Cat+|An|)  =   0.00
                               Iterations  =   8
                                  Total H  = 1.110124e+02
                                  Total O  = 5.550629e+01

----------------------------Distribution of species----------------------------

                                               Log       Log       Log    mole V
   Species          Molality    Activity  Molality  Activity     Gamma   cm3/mol

   OH-             2.414e-06   2.381e-06    -5.617    -5.623    -0.006    -12.45
   H+              2.256e-06   2.225e-06    -5.647    -5.653    -0.006      0.00
   H2O             5.551e+01   1.000e+00     1.744    -0.000     0.000     19.46
Ba            1.872e-05
   Ba+2            1.856e-05   1.757e-05    -4.731    -4.755    -0.024     -9.68
   BaSO4           1.533e-07   1.533e-07    -6.814    -6.814     0.000     (0)  
   BaOH+           2.712e-13   2.675e-13   -12.567   -12.573    -0.006     (0)  
H(0)          3.009e-24
   H2              1.505e-24   1.505e-24   -23.823   -23.823     0.000     28.36
O(0)          4.884e-14
   O2              2.442e-14   2.442e-14   -13.612   -13.612     0.000     34.71
S(-2)         0.000e+00
   H2S             0.000e+00   0.000e+00   -71.051   -71.051     0.000     36.58
   HS-             0.000e+00   0.000e+00   -72.065   -72.071    -0.006     14.85
   S-2             0.000e+00   0.000e+00   -75.844   -75.868    -0.024     (0)  
S(6)          1.872e-05
   SO4-2           1.840e-05   1.742e-05    -4.735    -4.759    -0.024     -4.41
   HSO4-           1.582e-07   1.561e-07    -6.801    -6.807    -0.006     30.64
   BaSO4           1.533e-07   1.533e-07    -6.814    -6.814     0.000     (0)  

------------------------------Saturation indices-------------------------------

	Phase               SI   log IAP   log K(442 K, 493 atm)

	Barite            0.00     -9.51   -9.51  BaSO4
	H2(g)           -20.91    -23.82   -2.92  H2
	H2O(g)            0.98     -0.00   -0.98  H2O
	H2S(g)          -70.08    -77.72   -7.65  H2S
	O2(g)           -10.40    -13.61   -3.21  O2
	Sulfur          -54.06    -50.97    3.09  S


Reaction step 11.

Using solution 1.	
Using pure phase assemblage 1.	
Using temperature 1.	

-------------------------------Phase assemblage--------------------------------

                                                      Moles in assemblage
Phase               SI  log IAP  log K(T, P)   Initial       Final       Delta

Barite            0.05    -9.62     -9.67    1.000e+01   1.000e+01  -1.654e-05

-----------------------------Solution composition------------------------------

	Elements           Molality       Moles

	Ba                1.654e-05   1.654e-05
	S                 1.654e-05   1.654e-05

----------------------------Description of solution----------------------------

                                       pH  =   5.600      Charge balance
                                       pe  =   4.441      Adjusted to redox equilibrium
       Specific Conductance (uS/cm, 185 oC) = 37
                          Density (g/cm3)  =   0.91074
                        Activity of water  =   1.000
                           Ionic strength  =   6.800e-05
                       Mass of water (kg)  =   1.000e+00
                 Total alkalinity (eq/kg)  =  -1.554e-17
                    Total carbon (mol/kg)  =   0.000e+00
                       Total CO2 (mol/kg)  =   0.000e+00
                      Temperature (deg C)  = 185.71
                           Pressure (atm)  = 493.00
                  Electrical balance (eq)  =  -4.230e-17
 Percent error, 100*(Cat-|An|)/(Cat+|An|)  =  -0.00
                               Iterations  =   8
                                  Total H  = 1.110124e+02
                                  Total O  = 5.550628e+01

----------------------------Distribution of species----------------------------

                                               Log       Log       Log    mole V
   Species          Molality    Activity  Molality  Activity     Gamma   cm3/mol

   OH-             2.794e-06   2.756e-06    -5.554    -5.560    -0.006    -15.90
   H+              2.544e-06   2.510e-06    -5.594    -5.600    -0.006      0.00
   H2O             5.551e+01   1.000e+00     1.744    -0.000     0.000     19.78
Ba            1.654e-05
   Ba+2            1.643e-05   1.555e-05    -4.784    -4.808    -0.024    -10.55
   BaSO4           1.194e-07   1.194e-07    -6.923    -6.923     0.000     (0)  
   BaOH+           2.128e-13   2.099e-13   -12.672   -12.678    -0.006     (0)  
H(0)          2.852e-24
   H2              1.426e-24   1.426e-24   -23.846   -23.846     0.000     28.35
O(0)          1.035e-11
   O2              5.177e-12   5.177e-12   -11.286   -11.286     0.000     35.42
S(-2)         0.000e+00
   H2S             0.000e+00   0.000e+00   -71.941   -71.941     0.000     36.59
   HS-             0.000e+00   0.000e+00   -73.123   -73.129    -0.006     12.67
   S-2             0.000e+00   0.000e+00   -76.726   -76.750    -0.024     (0)  
S(6)          1.654e-05
   SO4-2           1.618e-05   1.532e-05    -4.791    -4.815    -0.024    -12.33
   HSO4-           2.497e-07   2.463e-07    -6.603    -6.609    -0.006     28.90
   BaSO4           1.194e-07   1.194e-07    -6.923    -6.923     0.000     (0)  

------------------------------Saturation indices-------------------------------

	Phase               SI   log IAP   log K(458 K, 493 atm)

	Barite            0.00     -9.62   -9.62  BaSO4
	H2(g)           -20.99    -23.85   -2.86  H2
	H2O(g)            1.14     -0.00   -1.14  H2O
	H2S(g)          -71.04    -78.73   -7.69  H2S
	O2(g)            -8.14    -11.29   -3.15  O2
	Sulfur          -54.82    -51.86    2.96  S


Reaction step 12.

Using solution 1.	
Using pure phase assemblage 1.	
Using temperature 1.	

-------------------------------Phase assemblage--------------------------------

                                                      Moles in assemblage
Phase               SI  log IAP  log K(T, P)   Initial       Final       Delta

Barite            0.06    -9.74     -9.80    1.000e+01   1.000e+01  -1.457e-05

-----------------------------Solution composition------------------------------

	Elements           Molality       Moles

	Ba                1.457e-05   1.457e-05
	S                 1.457e-05   1.457e-05

----------------------------Description of solution----------------------------

                                       pH  =   5.560      Charge balance
                                       pe  =   4.483      Adjusted to redox equilibrium
       Specific Conductance (uS/cm, 201 oC) = 38
                          Density (g/cm3)  =   0.89498
                        Activity of water  =   1.000
                           Ionic strength  =   6.033e-05
                       Mass of water (kg)  =   1.000e+00
                 Total alkalinity (eq/kg)  =   5.266e-17
                    Total carbon (mol/kg)  =   0.000e+00
                       Total CO2 (mol/kg)  =   0.000e+00
                      Temperature (deg C)  = 201.79
                           Pressure (atm)  = 493.00
                  Electrical balance (eq)  =   1.973e-15
 Percent error, 100*(Cat-|An|)/(Cat+|An|)  =   0.00
                               Iterations  =   8
                                  Total H  = 1.110124e+02
                                  Total O  = 5.550628e+01

----------------------------Distribution of species----------------------------

                                               Log       Log       Log    mole V
   Species          Molality    Activity  Molality  Activity     Gamma   cm3/mol

   OH-             3.168e-06   3.125e-06    -5.499    -5.505    -0.006    -20.24
   H+              2.792e-06   2.755e-06    -5.554    -5.560    -0.006      0.00
   H2O             5.551e+01   1.000e+00     1.744    -0.000     0.000     20.13
Ba            1.457e-05
   Ba+2            1.448e-05   1.372e-05    -4.839    -4.863    -0.023    -11.68
   BaSO4           9.188e-08   9.188e-08    -7.037    -7.037     0.000     (0)  
   BaOH+           1.710e-13   1.687e-13   -12.767   -12.773    -0.006     (0)  
H(0)          2.693e-24
   H2              1.346e-24   1.346e-24   -23.871   -23.871     0.000     28.35
O(0)          1.548e-09
   O2              7.739e-10   7.739e-10    -9.111    -9.111     0.000     36.28
S(-2)         0.000e+00
   H2S             0.000e+00   0.000e+00   -72.792   -72.792     0.000     36.59
   HS-             0.000e+00   0.000e+00   -74.146   -74.152    -0.006      9.91
   S-2             0.000e+00   0.000e+00   -77.568   -77.591    -0.023     (0)  
S(6)          1.457e-05
   SO4-2           1.410e-05   1.336e-05    -4.851    -4.874    -0.023    -22.29
   HSO4-           3.759e-07   3.708e-07    -6.425    -6.431    -0.006     26.69
   BaSO4           9.188e-08   9.188e-08    -7.037    -7.037     0.000     (0)  

------------------------------Saturation indices-------------------------------

	Phase               SI   log IAP   log K(474 K, 493 atm)

	Barite           -0.00     -9.74   -9.74  BaSO4
	H2(g)           -21.07    -23.87   -2.80  H2
	H2O(g)            1.28     -0.00   -1.28  H2O
	H2S(g)          -71.99    -79.71   -7.72  H2S
	O2(g)            -6.03     -9.11   -3.08  O2
	Sulfur          -55.56    -52.71    2.85  S


Reaction step 13.

Using solution 1.	
Using pure phase assemblage 1.	
Using temperature 1.	

-------------------------------Phase assemblage--------------------------------

                                                      Moles in assemblage
Phase               SI  log IAP  log K(T, P)   Initial       Final       Delta

Barite            0.07    -9.85     -9.93    1.000e+01   1.000e+01  -1.287e-05

-----------------------------Solution composition------------------------------

	Elements           Molality       Moles

	Ba                1.287e-05   1.287e-05
	S                 1.287e-05   1.287e-05

----------------------------Description of solution----------------------------

                                       pH  =   5.531      Charge balance
                                       pe  =   4.081      Adjusted to redox equilibrium
       Specific Conductance (uS/cm, 217 oC) = 39
                          Density (g/cm3)  =   0.87839
                        Activity of water  =   1.000
                           Ionic strength  =   5.365e-05
                       Mass of water (kg)  =   1.000e+00
                 Total alkalinity (eq/kg)  =  -1.473e-17
                    Total carbon (mol/kg)  =   0.000e+00
                       Total CO2 (mol/kg)  =   0.000e+00
                      Temperature (deg C)  = 217.86
                           Pressure (atm)  = 493.00
                  Electrical balance (eq)  =   1.471e-17
 Percent error, 100*(Cat-|An|)/(Cat+|An|)  =   0.00
                               Iterations  =  12
                                  Total H  = 1.110124e+02
                                  Total O  = 5.550627e+01

----------------------------Distribution of species----------------------------

                                               Log       Log       Log    mole V
   Species          Molality    Activity  Molality  Activity     Gamma   cm3/mol

   OH-             3.527e-06   3.480e-06    -5.453    -5.458    -0.006    -25.73
   H+              2.986e-06   2.947e-06    -5.525    -5.531    -0.006      0.00
   H2O             5.551e+01   1.000e+00     1.744    -0.000     0.000     20.51
Ba            1.287e-05
   Ba+2            1.280e-05   1.213e-05    -4.893    -4.916    -0.023    -13.12
   BaSO4           7.068e-08   7.068e-08    -7.151    -7.151     0.000     (0)  
   BaOH+           1.414e-13   1.395e-13   -12.850   -12.855    -0.006     (0)  
H(0)          1.867e-23
   H2              9.336e-24   9.336e-24   -23.030   -23.030     0.000     28.35
O(0)          3.111e-09
   O2              1.555e-09   1.555e-09    -8.808    -8.808     0.000     37.32
S(-2)         0.000e+00
   H2S             0.000e+00   0.000e+00   -70.143   -70.143     0.000     36.60
   HS-             0.000e+00   0.000e+00   -71.670   -71.676    -0.006      6.42
   S-2             0.000e+00   0.000e+00   -74.902   -74.926    -0.023     (0)  
S(6)          1.287e-05
   SO4-2           1.226e-05   1.162e-05    -4.912    -4.935    -0.023    -34.90
   HSO4-           5.406e-07   5.334e-07    -6.267    -6.273    -0.006     23.88
   BaSO4           7.068e-08   7.068e-08    -7.151    -7.151     0.000     (0)  

------------------------------Saturation indices-------------------------------

	Phase               SI   log IAP   log K(491 K, 493 atm)

	Barite           -0.00     -9.85   -9.85  BaSO4
	H2(g)           -20.29    -23.03   -2.74  H2
	H2O(g)            1.41     -0.00   -1.41  H2O
	H2S(g)          -69.45    -77.21   -7.76  H2S
	O2(g)            -5.80     -8.81   -3.01  O2
	Sulfur          -53.69    -50.92    2.77  S


Reaction step 14.

Using solution 1.	
Using pure phase assemblage 1.	
Using temperature 1.	

-------------------------------Phase assemblage--------------------------------

                                                      Moles in assemblage
Phase               SI  log IAP  log K(T, P)   Initial       Final       Delta

Barite            0.09    -9.96    -10.05    1.000e+01   1.000e+01  -1.149e-05

-----------------------------Solution composition------------------------------

	Elements           Molality       Moles

	Ba                1.149e-05   1.149e-05
	S                 1.149e-05   1.149e-05

----------------------------Description of solution----------------------------

                                       pH  =   5.511      Charge balance
                                       pe  =   3.671      Adjusted to redox equilibrium
       Specific Conductance (uS/cm, 233 oC) = 40
                          Density (g/cm3)  =   0.86093
                        Activity of water  =   1.000
                           Ionic strength  =   4.811e-05
                       Mass of water (kg)  =   1.000e+00
                 Total alkalinity (eq/kg)  =  -1.472e-17
                    Total carbon (mol/kg)  =   0.000e+00
                       Total CO2 (mol/kg)  =   0.000e+00
                      Temperature (deg C)  = 233.93
                           Pressure (atm)  = 493.00
                  Electrical balance (eq)  =   1.476e-17
 Percent error, 100*(Cat-|An|)/(Cat+|An|)  =   0.00
                               Iterations  =  16
                                  Total H  = 1.110124e+02
                                  Total O  = 5.550626e+01

----------------------------Distribution of species----------------------------

                                               Log       Log       Log    mole V
   Species          Molality    Activity  Molality  Activity     Gamma   cm3/mol

   OH-             3.866e-06   3.815e-06    -5.413    -5.418    -0.006    -32.74
   H+              3.122e-06   3.081e-06    -5.506    -5.511    -0.006      0.00
   H2O             5.551e+01   1.000e+00     1.744    -0.000     0.000     20.93
Ba            1.149e-05
   Ba+2            1.143e-05   1.084e-05    -4.942    -4.965    -0.023    -14.98
   BaSO4           5.505e-08   5.506e-08    -7.259    -7.259     0.000     (0)  
   BaOH+           1.208e-13   1.192e-13   -12.918   -12.924    -0.006     (0)  
H(0)          1.285e-22
   H2              6.423e-23   6.423e-23   -22.192   -22.192     0.000     28.35
O(0)          4.743e-09
   O2              2.372e-09   2.372e-09    -8.625    -8.625     0.000     38.62
S(-2)         0.000e+00
   H2S             0.000e+00   0.000e+00   -67.476   -67.476     0.000     36.60
   HS-             0.000e+00   0.000e+00   -69.176   -69.182    -0.006      1.96
   S-2             0.000e+00   0.000e+00   -72.209   -72.232    -0.023     (0)  
S(6)          1.149e-05
   SO4-2           1.069e-05   1.013e-05    -4.971    -4.994    -0.023    -51.00
   HSO4-           7.441e-07   7.342e-07    -6.128    -6.134    -0.006     20.27
   BaSO4           5.505e-08   5.506e-08    -7.259    -7.259     0.000     (0)  

------------------------------Saturation indices-------------------------------

	Phase               SI   log IAP   log K(507 K, 493 atm)

	Barite            0.00     -9.96   -9.96  BaSO4
	H2(g)           -19.52    -22.19   -2.67  H2
	H2O(g)            1.52     -0.00   -1.52  H2O
	H2S(g)          -66.90    -74.69   -7.79  H2S
	O2(g)            -5.69     -8.62   -2.93  O2
	Sulfur          -51.81    -49.11    2.70  S


Reaction step 15.

Using solution 1.	
Using pure phase assemblage 1.	
Using temperature 1.	

-------------------------------Phase assemblage--------------------------------

                                                      Moles in assemblage
Phase               SI  log IAP  log K(T, P)   Initial       Final       Delta

Barite            0.12   -10.06    -10.17    1.000e+01   1.000e+01  -1.045e-05

-----------------------------Solution composition------------------------------

	Elements           Molality       Moles

	Ba                1.045e-05   1.045e-05
	S                 1.045e-05   1.045e-05

----------------------------Description of solution----------------------------

                                       pH  =   5.500      Charge balance
                                       pe  =   3.147      Adjusted to redox equilibrium
       Specific Conductance (uS/cm, 250 oC) = 42
                          Density (g/cm3)  =   0.84250
                        Activity of water  =   1.000
                           Ionic strength  =   4.383e-05
                       Mass of water (kg)  =   1.000e+00
                 Total alkalinity (eq/kg)  =  -1.473e-17
                    Total carbon (mol/kg)  =   0.000e+00
                       Total CO2 (mol/kg)  =   0.000e+00
                      Temperature (deg C)  = 250.00
                           Pressure (atm)  = 493.00
                  Electrical balance (eq)  =   1.470e-17
 Percent error, 100*(Cat-|An|)/(Cat+|An|)  =   0.00
                               Iterations  =  21
                                  Total H  = 1.110124e+02
                                  Total O  = 5.550626e+01

----------------------------Distribution of species----------------------------

                                               Log       Log       Log    mole V
   Species          Molality    Activity  Molality  Activity     Gamma   cm3/mol

   OH-             4.184e-06   4.128e-06    -5.378    -5.384    -0.006    -41.80
   H+              3.202e-06   3.160e-06    -5.495    -5.500    -0.006      0.00
   H2O             5.551e+01   1.000e+00     1.744    -0.000     0.000     21.38
Ba            1.045e-05
   Ba+2            1.040e-05   9.859e-06    -4.983    -5.006    -0.023    -17.40
   BaSO4           4.412e-08   4.412e-08    -7.355    -7.355     0.000     (0)  
   BaOH+           1.072e-13   1.057e-13   -12.970   -12.976    -0.006     (0)  
H(0)          1.447e-21
   H2              7.237e-22   7.237e-22   -21.140   -21.140     0.000     28.35
O(0)          2.066e-09
   O2              1.033e-09   1.033e-09    -8.986    -8.986     0.000     40.26
S(-2)         0.000e+00
   H2S             0.000e+00   0.000e+00   -63.923   -63.923     0.000     36.61
   HS-             0.000e+00   0.000e+00   -65.796   -65.802    -0.006     -3.80
   S-2             0.000e+00   0.000e+00   -68.618   -68.641    -0.023     (0)  
S(6)          1.045e-05
   SO4-2           9.420e-06   8.928e-06    -5.026    -5.049    -0.023    -71.81
   HSO4-           9.821e-07   9.690e-07    -6.008    -6.014    -0.006     15.60
   BaSO4           4.412e-08   4.412e-08    -7.355    -7.355     0.000     (0)  

------------------------------Saturation indices-------------------------------

	Phase               SI   log IAP   log K(523 K, 493 atm)

	Barite           -0.00    -10.06  -10.06  BaSO4
	H2(g)           -18.53    -21.14   -2.61  H2
	H2O(g)            1.63     -0.00   -1.63  H2O
	H2S(g)          -63.49    -71.30   -7.81  H2S
	O2(g)            -6.14     -8.99   -2.85  O2
	Sulfur          -49.30    -46.63    2.67  S


------------------
End of simulation.
------------------

------------------------------------
Reading input data for simulation 2.
------------------------------------

-----------
End of run.
-----------

