   Input file: Barite_tc
  Output file: Barite_tc.out
Database file: ../database/vreeqc.dat

------------------
Reading data base.
------------------

	SOLUTION_MASTER_SPECIES
	SOLUTION_SPECIES
	PHASES
	EXCHANGE_MASTER_SPECIES
	EXCHANGE_SPECIES
	SURFACE_MASTER_SPECIES
	SURFACE_SPECIES
	RATES
	END
------------------------------------
Reading input data for simulation 1.
------------------------------------

	DATABASE ../database/vreeqc.dat
	SOLUTION_SPECIES
	Ba+2 = Ba+2
		gamma	5.0	0.0
		dw 0.848e-9
		vm  -14 7.8e-3 5.2e-4 -5e-3 0.034 -5.7e-4 -10e-3 1.6 # 0-250 oC. BaCl2.xls, Laliberte, 2009. Barite solubility, Blount 1977, Lyashchenko and Churagulov, 1981. 0-250 oC, 1-500 atm.
	SO4-2 = SO4-2
		gamma	5.0	-0.04
		dw	 1.07e-9
		millero 9.26 0.284 -0.003808 0.4348 -0.0099143 -8.4762e-05
		vm 9.55 0.297 -3e-3  2.06 -0.08 7.08e-4  -10e-3  0.017 # Na2SO4.xls, Laliberte, 2009; Phulela and Pitzer, 1986; Gypsum/Anhydrite solubility.  0-200 oC, 1-1000 atm.
		vm   7.76 0.324 -3.4e-3  -0.094 -1.2e-3 2.57e-5  -10e-3  0.93
	Na+ + SO4-2 = NaSO4-
		log_k	0.7
		delta_h 1.120	kcal
		dw 6.18e-10
		vm  21.3 0.1 -1.7e-3  7.03 -0.144 1.56e-3  0  1.9
	PHASES
	Barite
		BaSO4 = Ba+2 + SO4-2
		log_k	-9.97
		delta_h  6.35 kcal
		analytical_expression	136.035	0.0	-7680.41	-48.595
		vm 51.9
	SOLUTION 1
	 pH 7 charge
	 temp 50
	 pressure 493
	EQUILIBRIUM_PHASES
	 Barite
	REACTION_TEMPERATURE
	 25 250 in 15
	USER_GRAPH
	 -plot_csv barite_tc.dat
	 -axis_scale y_axis 10e-6 30e-6
	 -chart_title "Barite solubility at 500 bar"
	 axis_titles "Temperature / oC" "Barite solubility / M"
	 10 plot_xy tc, tot("Ba"), color = Red, symbol = None
	END
-------------------------------------------
Beginning of initial solution calculations.
-------------------------------------------

Initial solution 1.	

-----------------------------Solution composition------------------------------

	Elements           Molality       Moles

	Pure water     

----------------------------Description of solution----------------------------

                                       pH  =   6.550      Charge balance
                                       pe  =   4.000    
       Specific Conductance (uS/cm, 50 oC) = 0
                          Density (g/cm3)  =   1.00867
                        Activity of water  =   1.000
                           Ionic strength  =   2.822e-07
                       Mass of water (kg)  =   1.000e+00
                 Total alkalinity (eq/kg)  =  -1.502e-17
                    Total carbon (mol/kg)  =   0.000e+00
                       Total CO2 (mol/kg)  =   0.000e+00
                      Temperature (deg C)  =  50.00
                           Pressure (atm)  = 493.00
                  Electrical balance (eq)  =   1.502e-17
 Percent error, 100*(Cat-|An|)/(Cat+|An|)  =   0.00
                               Iterations  =   4
                                  Total H  = 1.110124e+02
                                  Total O  = 5.550622e+01

----------------------------Distribution of species----------------------------

                                            Log       Log         Log     mole V
   Species          Molality    Activity  Molality  Activity     Gamma   cm3/mol

   H+              2.822e-07   2.820e-07    -6.549    -6.550    -0.000      0.00
   OH-             2.822e-07   2.820e-07    -6.549    -6.550    -0.000     -3.95
   H2O             5.551e+01   1.000e+00     1.744    -0.000     0.000     17.86
H(0)          6.177e-25
   H2              3.088e-25   3.088e-25   -24.510   -24.510     0.000     20.00
O(0)          1.172e-36
   O2              5.861e-37   5.861e-37   -36.232   -36.232     0.000     35.00

------------------------------Saturation indices-------------------------------

	Phase               SI   log IAP   log K(323 K, 493 atm)

	H2(g)           -21.37    -24.51   -3.14  H2
	H2O(g)           -0.77     -0.00    0.77  H2O
	O2(g)           -32.91    -36.23   -3.32  O2


-----------------------------------------
Beginning of batch-reaction calculations.
-----------------------------------------

Reaction step 1.

Using solution 1.	
Using pure phase assemblage 1.	
Using temperature 1.	

-------------------------------Phase assemblage--------------------------------

                                                      Moles in assemblage
Phase               SI  log IAP  log K(T, P)   Initial       Final       Delta

Barite            0.36    -9.61     -9.97    1.000e+01   1.000e+01  -1.646e-05

-----------------------------Solution composition------------------------------

	Elements           Molality       Moles

	Ba                1.646e-05   1.646e-05
	S                 1.646e-05   1.646e-05

----------------------------Description of solution----------------------------

                                       pH  =   6.911      Charge balance
                                       pe  =  -1.498      Adjusted to redox equilibrium
       Specific Conductance (uS/cm, 25 oC) = 4
                          Density (g/cm3)  =   1.01824
                        Activity of water  =   1.000
                           Ionic strength  =   6.545e-05
                       Mass of water (kg)  =   1.000e+00
                 Total alkalinity (eq/kg)  =  -1.867e-17
                    Total carbon (mol/kg)  =   0.000e+00
                       Total CO2 (mol/kg)  =   0.000e+00
                      Temperature (deg C)  =  25.00
                           Pressure (atm)  = 493.00
                  Electrical balance (eq)  =   3.279e-16
 Percent error, 100*(Cat-|An|)/(Cat+|An|)  =   0.00
                               Iterations  =  12
                                  Total H  = 1.110124e+02
                                  Total O  = 5.550628e+01

----------------------------Distribution of species----------------------------

                                            Log       Log         Log     mole V
   Species          Molality    Activity  Molality  Activity     Gamma   cm3/mol

   OH-             1.242e-07   1.230e-07    -6.906    -6.910    -0.004     -2.79
   H+              1.240e-07   1.228e-07    -6.907    -6.911    -0.004      0.00
   H2O             5.551e+01   1.000e+00     1.744    -0.000     0.000     17.69
Ba            1.646e-05
   Ba+2            1.633e-05   1.574e-05    -4.787    -4.803    -0.016     -8.53
   BaSO4           1.242e-07   1.242e-07    -6.906    -6.906     0.000     (0)  
   BaOH+           4.383e-12   4.343e-12   -11.358   -11.362    -0.004     (0)  
H(0)          1.413e-14
   H2              7.065e-15   7.065e-15   -14.151   -14.151     0.000     20.00
O(0)          0.000e+00
   O2              0.000e+00   0.000e+00   -64.424   -64.424     0.000     35.00
S(-2)         1.945e-22
   HS-             1.121e-22   1.111e-22   -21.950   -21.954    -0.004     15.01
   H2S             8.244e-23   8.244e-23   -22.084   -22.084     0.000     33.38
   S-2             4.367e-28   4.209e-28   -27.360   -27.376    -0.016     (0)  
S(6)          1.646e-05
   SO4-2           1.633e-05   1.574e-05    -4.787    -4.803    -0.016     18.68
   BaSO4           1.242e-07   1.242e-07    -6.906    -6.906     0.000     (0)  
   HSO4-           1.898e-10   1.880e-10    -9.722    -9.726    -0.004     (0)  

------------------------------Saturation indices-------------------------------

	Phase               SI   log IAP   log K(298 K, 493 atm)

	Barite            0.00     -9.61   -9.61  BaSO4
	H2(g)           -11.05    -14.15   -3.10  H2
	H2O(g)           -1.35     -0.00    1.35  H2O
	H2S(g)          -21.33    -28.87   -7.54  H2S
	O2(g)           -61.22    -64.42   -3.20  O2
	Sulfur          -16.59    -11.26    5.34  S


Reaction step 2.

Using solution 1.	
Using pure phase assemblage 1.	
Using temperature 1.	

-------------------------------Phase assemblage--------------------------------

                                                      Moles in assemblage
Phase               SI  log IAP  log K(T, P)   Initial       Final       Delta

Barite           -0.02    -9.43     -9.41    1.000e+01   1.000e+01  -2.019e-05

-----------------------------Solution composition------------------------------

	Elements           Molality       Moles

	Ba                2.019e-05   2.019e-05
	S                 2.019e-05   2.019e-05

----------------------------Description of solution----------------------------

                                       pH  =   6.669      Charge balance
                                       pe  =  -1.284      Adjusted to redox equilibrium
       Specific Conductance (uS/cm, 41 oC) = 8
                          Density (g/cm3)  =   1.01250
                        Activity of water  =   1.000
                           Ionic strength  =   8.025e-05
                       Mass of water (kg)  =   1.000e+00
                 Total alkalinity (eq/kg)  =  -1.127e-17
                    Total carbon (mol/kg)  =   0.000e+00
                       Total CO2 (mol/kg)  =   0.000e+00
                      Temperature (deg C)  =  41.07
                           Pressure (atm)  = 493.00
                  Electrical balance (eq)  =   1.243e-15
 Percent error, 100*(Cat-|An|)/(Cat+|An|)  =   0.00
                               Iterations  =  12
                                  Total H  = 1.110124e+02
                                  Total O  = 5.550630e+01

----------------------------Distribution of species----------------------------

                                            Log       Log         Log     mole V
   Species          Molality    Activity  Molality  Activity     Gamma   cm3/mol

   OH-             2.171e-07   2.149e-07    -6.663    -6.668    -0.005     -3.48
   H+              2.165e-07   2.143e-07    -6.664    -6.669    -0.004      0.00
   H2O             5.551e+01   1.000e+00     1.744    -0.000     0.000     17.79
Ba            2.019e-05
   Ba+2            2.001e-05   1.919e-05    -4.699    -4.717    -0.018     -7.85
   BaSO4           1.846e-07   1.846e-07    -6.734    -6.734     0.000     (0)  
   BaOH+           3.066e-12   3.034e-12   -11.513   -11.518    -0.005     (0)  
H(0)          1.413e-14
   H2              7.065e-15   7.065e-15   -14.151   -14.151     0.000     20.00
O(0)          0.000e+00
   O2              0.000e+00   0.000e+00   -59.483   -59.483     0.000     35.00
S(-2)         4.563e-24
   HS-             2.461e-24   2.435e-24   -23.609   -23.613    -0.005     15.01
   H2S             2.102e-24   2.102e-24   -23.677   -23.677     0.000     34.04
   S-2             1.430e-29   1.372e-29   -28.845   -28.863    -0.018     (0)  
S(6)          2.019e-05
   SO4-2           2.001e-05   1.919e-05    -4.699    -4.717    -0.018     20.29
   BaSO4           1.846e-07   1.846e-07    -6.734    -6.734     0.000     (0)  
   HSO4-           5.861e-10   5.800e-10    -9.232    -9.237    -0.005     (0)  

------------------------------Saturation indices-------------------------------

	Phase               SI   log IAP   log K(314 K, 493 atm)

	Barite            0.00     -9.43   -9.43  BaSO4
	H2(g)           -11.02    -14.15   -3.13  H2
	H2O(g)           -0.97     -0.00    0.97  H2O
	H2S(g)          -22.74    -30.28   -7.54  H2S
	O2(g)           -56.20    -59.48   -3.28  O2
	Sulfur          -17.86    -12.91    4.95  S


Reaction step 3.

Using solution 1.	
Using pure phase assemblage 1.	
Using temperature 1.	

-------------------------------Phase assemblage--------------------------------

                                                      Moles in assemblage
Phase               SI  log IAP  log K(T, P)   Initial       Final       Delta

Barite           -0.01    -9.32     -9.31    1.000e+01   1.000e+01  -2.316e-05

-----------------------------Solution composition------------------------------

	Elements           Molality       Moles

	Ba                2.316e-05   2.316e-05
	S                 2.316e-05   2.316e-05

----------------------------Description of solution----------------------------

                                       pH  =   6.463      Charge balance
                                       pe  =  -1.104      Adjusted to redox equilibrium
       Specific Conductance (uS/cm, 57 oC) = 12
                          Density (g/cm3)  =   1.00532
                        Activity of water  =   1.000
                           Ionic strength  =   9.203e-05
                       Mass of water (kg)  =   1.000e+00
                 Total alkalinity (eq/kg)  =   7.480e-17
                    Total carbon (mol/kg)  =   0.000e+00
                       Total CO2 (mol/kg)  =   0.000e+00
                      Temperature (deg C)  =  57.14
                           Pressure (atm)  = 493.00
                  Electrical balance (eq)  =   3.823e-15
 Percent error, 100*(Cat-|An|)/(Cat+|An|)  =   0.00
                               Iterations  =  12
                                  Total H  = 1.110124e+02
                                  Total O  = 5.550631e+01

----------------------------Distribution of species----------------------------

                                            Log       Log         Log     mole V
   Species          Molality    Activity  Molality  Activity     Gamma   cm3/mol

   OH-             3.500e-07   3.460e-07    -6.456    -6.461    -0.005     -4.35
   H+              3.484e-07   3.445e-07    -6.458    -6.463    -0.005      0.00
   H2O             5.551e+01   1.000e+00     1.744    -0.000     0.000     17.92
Ba            2.316e-05
   Ba+2            2.292e-05   2.189e-05    -4.640    -4.660    -0.020     -6.89
   BaSO4           2.402e-07   2.402e-07    -6.619    -6.619     0.000     (0)  
   BaOH+           2.178e-12   2.153e-12   -11.662   -11.667    -0.005     (0)  
H(0)          1.413e-14
   H2              7.065e-15   7.065e-15   -14.151   -14.151     0.000     20.00
O(0)          0.000e+00
   O2              0.000e+00   0.000e+00   -55.023   -55.023     0.000     35.00
S(-2)         1.429e-25
   H2S             7.260e-26   7.260e-26   -25.139   -25.139     0.000     34.85
   HS-             7.028e-26   6.948e-26   -25.153   -25.158    -0.005     15.01
   S-2             6.230e-31   5.950e-31   -30.206   -30.225    -0.020     (0)  
S(6)          2.316e-05
   SO4-2           2.292e-05   2.189e-05    -4.640    -4.660    -0.020     20.13
   BaSO4           2.402e-07   2.402e-07    -6.619    -6.619     0.000     (0)  
   HSO4-           1.619e-09   1.600e-09    -8.791    -8.796    -0.005     (0)  

------------------------------Saturation indices-------------------------------

	Phase               SI   log IAP   log K(330 K, 493 atm)

	Barite            0.00     -9.32   -9.32  BaSO4
	H2(g)           -11.01    -14.15   -3.14  H2
	H2O(g)           -0.63     -0.00    0.63  H2O
	H2S(g)          -24.09    -31.62   -7.53  H2S
	O2(g)           -51.68    -55.02   -3.34  O2
	Sulfur          -19.03    -14.42    4.61  S


Reaction step 4.

Using solution 1.	
Using pure phase assemblage 1.	
Using temperature 1.	

-------------------------------Phase assemblage--------------------------------

                                                      Moles in assemblage
Phase               SI  log IAP  log K(T, P)   Initial       Final       Delta

Barite            0.01    -9.25     -9.26    1.000e+01   1.000e+01  -2.514e-05

-----------------------------Solution composition------------------------------

	Elements           Molality       Moles

	Ba                2.514e-05   2.514e-05
	S                 2.514e-05   2.514e-05

----------------------------Description of solution----------------------------

                                       pH  =   6.286      Charge balance
                                       pe  =  -0.951      Adjusted to redox equilibrium
       Specific Conductance (uS/cm, 73 oC) = 16
                          Density (g/cm3)  =   0.99688
                        Activity of water  =   1.000
                           Ionic strength  =   9.994e-05
                       Mass of water (kg)  =   1.000e+00
                 Total alkalinity (eq/kg)  =   4.179e-16
                    Total carbon (mol/kg)  =   0.000e+00
                       Total CO2 (mol/kg)  =   0.000e+00
                      Temperature (deg C)  =  73.21
                           Pressure (atm)  = 493.00
                  Electrical balance (eq)  =   9.961e-15
 Percent error, 100*(Cat-|An|)/(Cat+|An|)  =   0.00
                               Iterations  =  12
                                  Total H  = 1.110124e+02
                                  Total O  = 5.550632e+01

----------------------------Distribution of species----------------------------

                                            Log       Log         Log     mole V
   Species          Molality    Activity  Molality  Activity     Gamma   cm3/mol

   OH-             5.277e-07   5.212e-07    -6.278    -6.283    -0.005     -5.39
   H+              5.236e-07   5.173e-07    -6.281    -6.286    -0.005      0.00
   H2O             5.551e+01   1.000e+00     1.744    -0.000     0.000     18.07
Ba            2.514e-05
   Ba+2            2.486e-05   2.366e-05    -4.605    -4.626    -0.021     -5.67
   BaSO4           2.804e-07   2.804e-07    -6.552    -6.552     0.000     (0)  
   BaOH+           1.569e-12   1.550e-12   -11.804   -11.810    -0.005     (0)  
H(0)          1.413e-14
   H2              7.065e-15   7.065e-15   -14.151   -14.151     0.000     20.00
O(0)          0.000e+00
   O2              0.000e+00   0.000e+00   -50.976   -50.976     0.000     35.00
S(-2)         5.814e-27
   H2S             3.284e-27   3.284e-27   -26.484   -26.484     0.000     35.82
   HS-             2.531e-27   2.500e-27   -26.597   -26.602    -0.005     15.01
   S-2             3.479e-32   3.311e-32   -31.459   -31.480    -0.021     (0)  
S(6)          2.514e-05
   SO4-2           2.485e-05   2.365e-05    -4.605    -4.626    -0.021     18.23
   BaSO4           2.804e-07   2.804e-07    -6.552    -6.552     0.000     (0)  
   HSO4-           4.073e-09   4.022e-09    -8.390    -8.396    -0.005     (0)  

------------------------------Saturation indices-------------------------------

	Phase               SI   log IAP   log K(346 K, 493 atm)

	Barite            0.00     -9.25   -9.25  BaSO4
	H2(g)           -11.02    -14.15   -3.13  H2
	H2O(g)           -0.32     -0.00    0.32  H2O
	H2S(g)          -25.36    -32.89   -7.52  H2S
	O2(g)           -47.61    -50.98   -3.37  O2
	Sulfur          -20.13    -15.81    4.32  S


Reaction step 5.

Using solution 1.	
Using pure phase assemblage 1.	
Using temperature 1.	

-------------------------------Phase assemblage--------------------------------

                                                      Moles in assemblage
Phase               SI  log IAP  log K(T, P)   Initial       Final       Delta

Barite            0.02    -9.22     -9.24    1.000e+01   1.000e+01  -2.606e-05

-----------------------------Solution composition------------------------------

	Elements           Molality       Moles

	Ba                2.606e-05   2.606e-05
	S                 2.606e-05   2.606e-05

----------------------------Description of solution----------------------------

                                       pH  =   6.135      Charge balance
                                       pe  =  -0.820      Adjusted to redox equilibrium
       Specific Conductance (uS/cm, 89 oC) = 21
                          Density (g/cm3)  =   0.98731
                        Activity of water  =   1.000
                           Ionic strength  =   1.038e-04
                       Mass of water (kg)  =   1.000e+00
                 Total alkalinity (eq/kg)  =   1.263e-15
                    Total carbon (mol/kg)  =   0.000e+00
                       Total CO2 (mol/kg)  =   0.000e+00
                      Temperature (deg C)  =  89.29
                           Pressure (atm)  = 493.00
                  Electrical balance (eq)  =   2.301e-14
 Percent error, 100*(Cat-|An|)/(Cat+|An|)  =   0.00
                               Iterations  =  12
                                  Total H  = 1.110124e+02
                                  Total O  = 5.550632e+01

----------------------------Distribution of species----------------------------

                                            Log       Log         Log     mole V
   Species          Molality    Activity  Molality  Activity     Gamma   cm3/mol

   OH-             7.522e-07   7.424e-07    -6.124    -6.129    -0.006     -6.62
   H+              7.428e-07   7.333e-07    -6.129    -6.135    -0.006      0.00
   H2O             5.551e+01   1.000e+00     1.744    -0.000     0.000     18.25
Ba            2.606e-05
   Ba+2            2.576e-05   2.445e-05    -4.589    -4.612    -0.023     -4.18
   BaSO4           2.994e-07   2.994e-07    -6.524    -6.524     0.000     (0)  
   BaOH+           1.145e-12   1.130e-12   -11.941   -11.947    -0.006     (0)  
H(0)          1.413e-14
   H2              7.065e-15   7.065e-15   -14.151   -14.151     0.000     20.00
O(0)          0.000e+00
   O2              0.000e+00   0.000e+00   -47.288   -47.288     0.000     35.00
S(-2)         3.004e-28
   H2S             1.885e-28   1.885e-28   -27.725   -27.725     0.000     36.94
   HS-             1.118e-28   1.104e-28   -27.951   -27.957    -0.006     15.02
   S-2             2.416e-33   2.293e-33   -32.617   -32.640    -0.023     (0)  
S(6)          2.606e-05
   SO4-2           2.575e-05   2.444e-05    -4.589    -4.612    -0.023     14.56
   BaSO4           2.994e-07   2.994e-07    -6.524    -6.524     0.000     (0)  
   HSO4-           9.466e-09   9.343e-09    -8.024    -8.030    -0.006     (0)  

------------------------------Saturation indices-------------------------------

	Phase               SI   log IAP   log K(362 K, 493 atm)

	Barite           -0.00     -9.22   -9.22  BaSO4
	H2(g)           -11.03    -14.15   -3.12  H2
	H2O(g)           -0.04     -0.00    0.04  H2O
	H2S(g)          -26.58    -34.09   -7.52  H2S
	O2(g)           -43.91    -47.29   -3.38  O2
	Sulfur          -21.16    -17.10    4.07  S


Reaction step 6.

Using solution 1.	
Using pure phase assemblage 1.	
Using temperature 1.	

-------------------------------Phase assemblage--------------------------------

                                                      Moles in assemblage
Phase               SI  log IAP  log K(T, P)   Initial       Final       Delta

Barite            0.03    -9.23     -9.25    1.000e+01   1.000e+01  -2.601e-05

-----------------------------Solution composition------------------------------

	Elements           Molality       Moles

	Ba                2.601e-05   2.601e-05
	S                 2.601e-05   2.601e-05

----------------------------Description of solution----------------------------

                                       pH  =   6.005      Charge balance
                                       pe  =  -0.710      Adjusted to redox equilibrium
       Specific Conductance (uS/cm, 105 oC) = 25
                          Density (g/cm3)  =   0.97672
                        Activity of water  =   1.000
                           Ionic strength  =   1.038e-04
                       Mass of water (kg)  =   1.000e+00
                 Total alkalinity (eq/kg)  =   2.426e-15
                    Total carbon (mol/kg)  =   0.000e+00
                       Total CO2 (mol/kg)  =   0.000e+00
                      Temperature (deg C)  = 105.36
                           Pressure (atm)  = 493.00
                  Electrical balance (eq)  =   4.944e-14
 Percent error, 100*(Cat-|An|)/(Cat+|An|)  =   0.00
                               Iterations  =  12
                                  Total H  = 1.110124e+02
                                  Total O  = 5.550632e+01

----------------------------Distribution of species----------------------------

                                            Log       Log         Log     mole V
   Species          Molality    Activity  Molality  Activity     Gamma   cm3/mol

   OH-             1.023e-06   1.009e-06    -5.990    -5.996    -0.006     -8.03
   H+              1.002e-06   9.887e-07    -5.999    -6.005    -0.006      0.00
   H2O             5.551e+01   1.000e+00     1.744    -0.000     0.000     18.45
Ba            2.601e-05
   Ba+2            2.572e-05   2.436e-05    -4.590    -4.613    -0.024     -2.42
   BaSO4           2.971e-07   2.971e-07    -6.527    -6.527     0.000     (0)  
   BaOH+           8.462e-13   8.348e-13   -12.073   -12.078    -0.006     (0)  
H(0)          1.413e-14
   H2              7.065e-15   7.065e-15   -14.151   -14.151     0.000     20.00
O(0)          0.000e+00
   O2              0.000e+00   0.000e+00   -43.913   -43.913     0.000     35.00
S(-2)         1.929e-29
   H2S             1.337e-29   1.337e-29   -28.874   -28.874     0.000     38.21
   HS-             5.921e-30   5.841e-30   -29.228   -29.233    -0.006     15.02
   S-2             2.032e-34   1.925e-34   -33.692   -33.716    -0.024     (0)  
S(6)          2.601e-05
   SO4-2           2.569e-05   2.434e-05    -4.590    -4.614    -0.024      9.15
   BaSO4           2.971e-07   2.971e-07    -6.527    -6.527     0.000     (0)  
   HSO4-           2.055e-08   2.027e-08    -7.687    -7.693    -0.006     (0)  

------------------------------Saturation indices-------------------------------

	Phase               SI   log IAP   log K(378 K, 493 atm)

	Barite           -0.00     -9.23   -9.23  BaSO4
	H2(g)           -11.06    -14.15   -3.09  H2
	H2O(g)            0.20     -0.00   -0.20  H2O
	H2S(g)          -27.73    -35.24   -7.51  H2S
	O2(g)           -40.55    -43.91   -3.37  O2
	Sulfur          -22.13    -18.28    3.85  S


Reaction step 7.

Using solution 1.	
Using pure phase assemblage 1.	
Using temperature 1.	

-------------------------------Phase assemblage--------------------------------

                                                      Moles in assemblage
Phase               SI  log IAP  log K(T, P)   Initial       Final       Delta

Barite            0.03    -9.26     -9.29    1.000e+01   1.000e+01  -2.517e-05

-----------------------------Solution composition------------------------------

	Elements           Molality       Moles

	Ba                2.517e-05   2.517e-05
	S                 2.517e-05   2.517e-05

----------------------------Description of solution----------------------------

                                       pH  =   5.894      Charge balance
                                       pe  =  -0.617      Adjusted to redox equilibrium
       Specific Conductance (uS/cm, 121 oC) = 29
                          Density (g/cm3)  =   0.96520
                        Activity of water  =   1.000
                           Ionic strength  =   1.008e-04
                       Mass of water (kg)  =   1.000e+00
                 Total alkalinity (eq/kg)  =   2.098e-15
                    Total carbon (mol/kg)  =   0.000e+00
                       Total CO2 (mol/kg)  =   0.000e+00
                      Temperature (deg C)  = 121.43
                           Pressure (atm)  = 493.00
                  Electrical balance (eq)  =   1.031e-13
 Percent error, 100*(Cat-|An|)/(Cat+|An|)  =   0.00
                               Iterations  =  12
                                  Total H  = 1.110124e+02
                                  Total O  = 5.550632e+01

----------------------------Distribution of species----------------------------

                                            Log       Log         Log     mole V
   Species          Molality    Activity  Molality  Activity     Gamma   cm3/mol

   OH-             1.335e-06   1.316e-06    -5.875    -5.881    -0.006     -9.62
   H+              1.293e-06   1.275e-06    -5.888    -5.894    -0.006      0.00
   H2O             5.551e+01   1.000e+00     1.744    -0.000     0.000     18.67
Ba            2.517e-05
   Ba+2            2.489e-05   2.354e-05    -4.604    -4.628    -0.024     -0.38
   BaSO4           2.774e-07   2.774e-07    -6.557    -6.557     0.000     (0)  
   BaOH+           6.344e-13   6.256e-13   -12.198   -12.204    -0.006     (0)  
H(0)          1.413e-14
   H2              7.065e-15   7.065e-15   -14.151   -14.151     0.000     20.00
O(0)          0.000e+00
   O2              0.000e+00   0.000e+00   -40.812   -40.812     0.000     35.00
S(-2)         1.510e-30
   H2S             1.142e-30   1.142e-30   -29.942   -29.942     0.000     39.65
   HS-             3.681e-31   3.630e-31   -30.434   -30.440    -0.006     15.02
   S-2             2.026e-35   1.916e-35   -34.693   -34.717    -0.024     (0)  
S(6)          2.517e-05
   SO4-2           2.485e-05   2.350e-05    -4.605    -4.629    -0.024      1.97
   BaSO4           2.774e-07   2.774e-07    -6.557    -6.557     0.000     (0)  
   HSO4-           4.199e-08   4.141e-08    -7.377    -7.383    -0.006     (0)  

------------------------------Saturation indices-------------------------------

	Phase               SI   log IAP   log K(394 K, 493 atm)

	Barite            0.00     -9.26   -9.26  BaSO4
	H2(g)           -11.09    -14.15   -3.06  H2
	H2O(g)            0.43     -0.00   -0.43  H2O
	H2S(g)          -28.83    -36.33   -7.50  H2S
	O2(g)           -37.47    -40.81   -3.34  O2
	Sulfur          -23.05    -19.39    3.66  S


Reaction step 8.

Using solution 1.	
Using pure phase assemblage 1.	
Using temperature 1.	

-------------------------------Phase assemblage--------------------------------

                                                      Moles in assemblage
Phase               SI  log IAP  log K(T, P)   Initial       Final       Delta

Barite            0.04    -9.31     -9.35    1.000e+01   1.000e+01  -2.374e-05

-----------------------------Solution composition------------------------------

	Elements           Molality       Moles

	Ba                2.374e-05   2.374e-05
	S                 2.374e-05   2.374e-05

----------------------------Description of solution----------------------------

                                       pH  =   5.801      Charge balance
                                       pe  =  -0.541      Adjusted to redox equilibrium
       Specific Conductance (uS/cm, 137 oC) = 33
                          Density (g/cm3)  =   0.95282
                        Activity of water  =   1.000
                           Ionic strength  =   9.549e-05
                       Mass of water (kg)  =   1.000e+00
                 Total alkalinity (eq/kg)  =  -3.742e-16
                    Total carbon (mol/kg)  =   0.000e+00
                       Total CO2 (mol/kg)  =   0.000e+00
                      Temperature (deg C)  = 137.50
                           Pressure (atm)  = 493.00
                  Electrical balance (eq)  =  -7.070e-15
 Percent error, 100*(Cat-|An|)/(Cat+|An|)  =  -0.00
                               Iterations  =  12
                                  Total H  = 1.110124e+02
                                  Total O  = 5.550631e+01

----------------------------Distribution of species----------------------------

                                            Log       Log         Log     mole V
   Species          Molality    Activity  Molality  Activity     Gamma   cm3/mol

   OH-             1.684e-06   1.660e-06    -5.774    -5.780    -0.006    -11.38
   H+              1.602e-06   1.580e-06    -5.795    -5.801    -0.006      0.00
   H2O             5.551e+01   1.000e+00     1.744    -0.000     0.000     18.91
Ba            2.374e-05
   Ba+2            2.349e-05   2.220e-05    -4.629    -4.654    -0.025      1.92
   BaSO4           2.462e-07   2.462e-07    -6.609    -6.609     0.000     (0)  
   BaOH+           4.829e-13   4.761e-13   -12.316   -12.322    -0.006     (0)  
H(0)          1.413e-14
   H2              7.065e-15   7.065e-15   -14.151   -14.151     0.000     20.00
O(0)          2.224e-38
   O2              1.112e-38   1.112e-38   -37.954   -37.954     0.000     35.00
S(-2)         1.413e-31
   H2S             1.149e-31   1.149e-31   -30.940   -30.940     0.000     41.23
   HS-             2.636e-32   2.599e-32   -31.579   -31.585    -0.006     15.02
   S-2             2.351e-36   2.222e-36   -35.629   -35.653    -0.025     (0)  
S(6)          2.374e-05
   SO4-2           2.341e-05   2.213e-05    -4.631    -4.655    -0.025     -6.95
   BaSO4           2.462e-07   2.462e-07    -6.609    -6.609     0.000     (0)  
   HSO4-           8.128e-08   8.014e-08    -7.090    -7.096    -0.006     (0)  

------------------------------Saturation indices-------------------------------

	Phase               SI   log IAP   log K(410 K, 493 atm)

	Barite            0.00     -9.31   -9.31  BaSO4
	H2(g)           -11.14    -14.15   -3.02  H2
	H2O(g)            0.63     -0.00   -0.63  H2O
	H2S(g)          -29.89    -37.39   -7.50  H2S
	O2(g)           -34.64    -37.95   -3.31  O2
	Sulfur          -23.92    -20.42    3.50  S


Reaction step 9.

Using solution 1.	
Using pure phase assemblage 1.	
Using temperature 1.	

-------------------------------Phase assemblage--------------------------------

                                                      Moles in assemblage
Phase               SI  log IAP  log K(T, P)   Initial       Final       Delta

Barite            0.05    -9.38     -9.43    1.000e+01   1.000e+01  -2.193e-05

-----------------------------Solution composition------------------------------

	Elements           Molality       Moles

	Ba                2.193e-05   2.193e-05
	S                 2.193e-05   2.193e-05

----------------------------Description of solution----------------------------

                                       pH  =   5.724      Charge balance
                                       pe  =  -0.479      Adjusted to redox equilibrium
       Specific Conductance (uS/cm, 153 oC) = 36
                          Density (g/cm3)  =   0.93962
                        Activity of water  =   1.000
                           Ionic strength  =   8.864e-05
                       Mass of water (kg)  =   1.000e+00
                 Total alkalinity (eq/kg)  =  -1.503e-17
                    Total carbon (mol/kg)  =   0.000e+00
                       Total CO2 (mol/kg)  =   0.000e+00
                      Temperature (deg C)  = 153.57
                           Pressure (atm)  = 493.00
                  Electrical balance (eq)  =   1.512e-17
 Percent error, 100*(Cat-|An|)/(Cat+|An|)  =   0.00
                               Iterations  =  13
                                  Total H  = 1.110124e+02
                                  Total O  = 5.550630e+01

----------------------------Distribution of species----------------------------

                                            Log       Log         Log     mole V
   Species          Molality    Activity  Molality  Activity     Gamma   cm3/mol

   OH-             2.062e-06   2.033e-06    -5.686    -5.692    -0.006    -13.33
   H+              1.913e-06   1.886e-06    -5.718    -5.724    -0.006      0.00
   H2O             5.551e+01   1.000e+00     1.744    -0.000     0.000     19.17
Ba            2.193e-05
   Ba+2            2.172e-05   2.052e-05    -4.663    -4.688    -0.025      4.49
   BaSO4           2.096e-07   2.096e-07    -6.679    -6.679     0.000     (0)  
   BaOH+           3.739e-13   3.686e-13   -12.427   -12.433    -0.006     (0)  
H(0)          1.413e-14
   H2              7.065e-15   7.065e-15   -14.151   -14.151     0.000     20.00
O(0)          9.781e-36
   O2              4.890e-36   4.891e-36   -35.311   -35.311     0.000     35.00
S(-2)         1.547e-32
   H2S             1.333e-32   1.333e-32   -31.875   -31.875     0.000     42.97
   HS-             2.140e-33   2.109e-33   -32.670   -32.676    -0.006     15.03
   S-2             3.125e-37   2.952e-37   -36.505   -36.530    -0.025     (0)  
S(6)          2.193e-05
   SO4-2           2.157e-05   2.038e-05    -4.666    -4.691    -0.025    -17.64
   BaSO4           2.096e-07   2.096e-07    -6.679    -6.679     0.000     (0)  
   HSO4-           1.497e-07   1.475e-07    -6.825    -6.831    -0.006     (0)  

------------------------------Saturation indices-------------------------------

	Phase               SI   log IAP   log K(426 K, 493 atm)

	Barite           -0.00     -9.38   -9.38  BaSO4
	H2(g)           -11.18    -14.15   -2.97  H2
	H2O(g)            0.82     -0.00   -0.82  H2O
	H2S(g)          -30.91    -38.40   -7.49  H2S
	O2(g)           -32.05    -35.31   -3.26  O2
	Sulfur          -24.74    -21.38    3.36  S


Reaction step 10.

Using solution 1.	
Using pure phase assemblage 1.	
Using temperature 1.	

-------------------------------Phase assemblage--------------------------------

                                                      Moles in assemblage
Phase               SI  log IAP  log K(T, P)   Initial       Final       Delta

Barite            0.06    -9.46     -9.52    1.000e+01   1.000e+01  -1.993e-05

-----------------------------Solution composition------------------------------

	Elements           Molality       Moles

	Ba                1.993e-05   1.993e-05
	S                 1.993e-05   1.993e-05

----------------------------Description of solution----------------------------

                                       pH  =   5.663      Charge balance
                                       pe  =   4.375      Adjusted to redox equilibrium
       Specific Conductance (uS/cm, 169 oC) = 38
                          Density (g/cm3)  =   0.92563
                        Activity of water  =   1.000
                           Ionic strength  =   8.098e-05
                       Mass of water (kg)  =   1.000e+00
                 Total alkalinity (eq/kg)  =  -8.954e-17
                    Total carbon (mol/kg)  =   0.000e+00
                       Total CO2 (mol/kg)  =   0.000e+00
                      Temperature (deg C)  = 169.64
                           Pressure (atm)  = 493.00
                  Electrical balance (eq)  =   2.454e-15
 Percent error, 100*(Cat-|An|)/(Cat+|An|)  =   0.00
                               Iterations  =   8
                                  Total H  = 1.110124e+02
                                  Total O  = 5.550630e+01

----------------------------Distribution of species----------------------------

                                            Log       Log         Log     mole V
   Species          Molality    Activity  Molality  Activity     Gamma   cm3/mol

   OH-             2.466e-06   2.431e-06    -5.608    -5.614    -0.006    -15.45
   H+              2.203e-06   2.172e-06    -5.657    -5.663    -0.006      0.00
   H2O             5.551e+01   1.000e+00     1.744    -0.000     0.000     19.46
Ba            1.993e-05
   Ba+2            1.976e-05   1.867e-05    -4.704    -4.729    -0.025      7.34
   BaSO4           1.723e-07   1.723e-07    -6.764    -6.764     0.000     (0)  
   BaOH+           2.954e-13   2.912e-13   -12.530   -12.536    -0.006     (0)  
H(0)          3.430e-24
   H2              1.715e-24   1.715e-24   -23.766   -23.766     0.000     20.00
O(0)          4.696e-14
   O2              2.348e-14   2.348e-14   -13.629   -13.629     0.000     35.00
S(-2)         0.000e+00
   H2S             0.000e+00   0.000e+00   -71.217   -71.217     0.000     44.87
   HS-             0.000e+00   0.000e+00   -72.172   -72.179    -0.006     15.03
   S-2             0.000e+00   0.000e+00   -75.788   -75.813    -0.025     (0)  
S(6)          1.993e-05
   SO4-2           1.950e-05   1.842e-05    -4.710    -4.735    -0.025    -30.07
   HSO4-           2.628e-07   2.590e-07    -6.580    -6.587    -0.006     (0)  
   BaSO4           1.723e-07   1.723e-07    -6.764    -6.764     0.000     (0)  

------------------------------Saturation indices-------------------------------

	Phase               SI   log IAP   log K(442 K, 493 atm)

	Barite           -0.00     -9.46   -9.46  BaSO4
	H2(g)           -20.85    -23.77   -2.92  H2
	H2O(g)            0.98     -0.00   -0.98  H2O
	H2S(g)          -70.34    -77.84   -7.50  H2S
	O2(g)           -10.42    -13.63   -3.21  O2
	Sulfur          -54.38    -51.14    3.24  S


Reaction step 11.

Using solution 1.	
Using pure phase assemblage 1.	
Using temperature 1.	

-------------------------------Phase assemblage--------------------------------

                                                      Moles in assemblage
Phase               SI  log IAP  log K(T, P)   Initial       Final       Delta

Barite            0.06    -9.56     -9.62    1.000e+01   1.000e+01  -1.790e-05

-----------------------------Solution composition------------------------------

	Elements           Molality       Moles

	Ba                1.790e-05   1.790e-05
	S                 1.790e-05   1.790e-05

----------------------------Description of solution----------------------------

                                       pH  =   5.617      Charge balance
                                       pe  =   4.433      Adjusted to redox equilibrium
       Specific Conductance (uS/cm, 185 oC) = 39
                          Density (g/cm3)  =   0.91082
                        Activity of water  =   1.000
                           Ionic strength  =   7.306e-05
                       Mass of water (kg)  =   1.000e+00
                 Total alkalinity (eq/kg)  =  -1.605e-15
                    Total carbon (mol/kg)  =   0.000e+00
                       Total CO2 (mol/kg)  =   0.000e+00
                      Temperature (deg C)  = 185.71
                           Pressure (atm)  = 493.00
                  Electrical balance (eq)  =   1.257e-14
 Percent error, 100*(Cat-|An|)/(Cat+|An|)  =   0.00
                               Iterations  =   8
                                  Total H  = 1.110124e+02
                                  Total O  = 5.550629e+01

----------------------------Distribution of species----------------------------

                                            Log       Log         Log     mole V
   Species          Molality    Activity  Molality  Activity     Gamma   cm3/mol

   OH-             2.890e-06   2.850e-06    -5.539    -5.545    -0.006    -17.76
   H+              2.450e-06   2.416e-06    -5.611    -5.617    -0.006      0.00
   H2O             5.551e+01   1.000e+00     1.744    -0.000     0.000     19.78
Ba            1.790e-05
   Ba+2            1.776e-05   1.679e-05    -4.751    -4.775    -0.025     10.45
   BaSO4           1.377e-07   1.377e-07    -6.861    -6.861     0.000     (0)  
   BaOH+           2.388e-13   2.354e-13   -12.622   -12.628    -0.006     (0)  
H(0)          3.061e-24
   H2              1.530e-24   1.530e-24   -23.815   -23.815     0.000     20.00
O(0)          1.124e-11
   O2              5.622e-12   5.622e-12   -11.250   -11.250     0.000     35.00
S(-2)         0.000e+00
   H2S             0.000e+00   0.000e+00   -72.252   -72.252     0.000     46.92
   HS-             0.000e+00   0.000e+00   -73.372   -73.378    -0.006     15.04
   S-2             0.000e+00   0.000e+00   -76.763   -76.788    -0.025     (0)  
S(6)          1.790e-05
   SO4-2           1.732e-05   1.637e-05    -4.761    -4.786    -0.025    -44.26
   HSO4-           4.404e-07   4.342e-07    -6.356    -6.362    -0.006     (0)  
   BaSO4           1.377e-07   1.377e-07    -6.861    -6.861     0.000     (0)  

------------------------------Saturation indices-------------------------------

	Phase               SI   log IAP   log K(458 K, 493 atm)

	Barite           -0.00     -9.56   -9.56  BaSO4
	H2(g)           -20.95    -23.82   -2.86  H2
	H2O(g)            1.14     -0.00   -1.14  H2O
	H2S(g)          -71.49    -79.00   -7.50  H2S
	O2(g)            -8.10    -11.25   -3.15  O2
	Sulfur          -55.29    -52.15    3.14  S


Reaction step 12.

Using solution 1.	
Using pure phase assemblage 1.	
Using temperature 1.	

-------------------------------Phase assemblage--------------------------------

                                                      Moles in assemblage
Phase               SI  log IAP  log K(T, P)   Initial       Final       Delta

Barite            0.07    -9.67     -9.74    1.000e+01   1.000e+01  -1.595e-05

-----------------------------Solution composition------------------------------

	Elements           Molality       Moles

	Ba                1.595e-05   1.595e-05
	S                 1.595e-05   1.595e-05

----------------------------Description of solution----------------------------

                                       pH  =   5.586      Charge balance
                                       pe  =   4.361      Adjusted to redox equilibrium
       Specific Conductance (uS/cm, 201 oC) = 41
                          Density (g/cm3)  =   0.89519
                        Activity of water  =   1.000
                           Ionic strength  =   6.530e-05
                       Mass of water (kg)  =   1.000e+00
                 Total alkalinity (eq/kg)  =  -1.484e-17
                    Total carbon (mol/kg)  =   0.000e+00
                       Total CO2 (mol/kg)  =   0.000e+00
                      Temperature (deg C)  = 201.79
                           Pressure (atm)  = 493.00
                  Electrical balance (eq)  =   4.701e-17
 Percent error, 100*(Cat-|An|)/(Cat+|An|)  =   0.00
                               Iterations  =   9
                                  Total H  = 1.110124e+02
                                  Total O  = 5.550628e+01

----------------------------Distribution of species----------------------------

                                            Log       Log         Log     mole V
   Species          Molality    Activity  Molality  Activity     Gamma   cm3/mol

   OH-             3.336e-06   3.289e-06    -5.477    -5.483    -0.006    -20.24
   H+              2.632e-06   2.595e-06    -5.580    -5.586    -0.006      0.00
   H2O             5.551e+01   1.000e+00     1.744    -0.000     0.000     20.13
Ba            1.595e-05
   Ba+2            1.584e-05   1.498e-05    -4.800    -4.825    -0.024     13.84
   BaSO4           1.075e-07   1.075e-07    -6.969    -6.969     0.000     (0)  
   BaOH+           1.983e-13   1.956e-13   -12.703   -12.709    -0.006     (0)  
H(0)          4.646e-24
   H2              2.323e-24   2.323e-24   -23.634   -23.634     0.000     20.00
O(0)          6.526e-10
   O2              3.263e-10   3.263e-10    -9.486    -9.486     0.000     35.00
S(-2)         0.000e+00
   H2S             0.000e+00   0.000e+00   -72.327   -72.327     0.000     49.12
   HS-             0.000e+00   0.000e+00   -73.614   -73.620    -0.006     15.04
   S-2             0.000e+00   0.000e+00   -76.773   -76.797    -0.024     (0)  
S(6)          1.595e-05
   SO4-2           1.514e-05   1.431e-05    -4.820    -4.844    -0.024    -60.21
   HSO4-           7.042e-07   6.944e-07    -6.152    -6.158    -0.006     (0)  
   BaSO4           1.075e-07   1.075e-07    -6.969    -6.969     0.000     (0)  

------------------------------Saturation indices-------------------------------

	Phase               SI   log IAP   log K(474 K, 493 atm)

	Barite           -0.00     -9.67   -9.67  BaSO4
	H2(g)           -20.83    -23.63   -2.80  H2
	H2O(g)            1.28     -0.00   -1.28  H2O
	H2S(g)          -71.69    -79.21   -7.52  H2S
	O2(g)            -6.40     -9.49   -3.08  O2
	Sulfur          -55.49    -52.43    3.06  S


Reaction step 13.

Using solution 1.	
Using pure phase assemblage 1.	
Using temperature 1.	

-------------------------------Phase assemblage--------------------------------

                                                      Moles in assemblage
Phase               SI  log IAP  log K(T, P)   Initial       Final       Delta

Barite            0.07    -9.78     -9.86    1.000e+01   1.000e+01  -1.417e-05

-----------------------------Solution composition------------------------------

	Elements           Molality       Moles

	Ba                1.417e-05   1.417e-05
	S                 1.417e-05   1.417e-05

----------------------------Description of solution----------------------------

                                       pH  =   5.570      Charge balance
                                       pe  =   4.061      Adjusted to redox equilibrium
       Specific Conductance (uS/cm, 217 oC) = 41
                          Density (g/cm3)  =   0.87867
                        Activity of water  =   1.000
                           Ionic strength  =   5.801e-05
                       Mass of water (kg)  =   1.000e+00
                 Total alkalinity (eq/kg)  =  -1.503e-17
                    Total carbon (mol/kg)  =   0.000e+00
                       Total CO2 (mol/kg)  =   0.000e+00
                      Temperature (deg C)  = 217.86
                           Pressure (atm)  = 493.00
                  Electrical balance (eq)  =   1.509e-17
 Percent error, 100*(Cat-|An|)/(Cat+|An|)  =   0.00
                               Iterations  =  12
                                  Total H  = 1.110124e+02
                                  Total O  = 5.550627e+01

----------------------------Distribution of species----------------------------

                                            Log       Log         Log     mole V
   Species          Molality    Activity  Molality  Activity     Gamma   cm3/mol

   OH-             3.804e-06   3.751e-06    -5.420    -5.426    -0.006    -22.90
   H+              2.731e-06   2.694e-06    -5.564    -5.570    -0.006      0.00
   H2O             5.551e+01   1.000e+00     1.744    -0.000     0.000     20.50
Ba            1.417e-05
   Ba+2            1.409e-05   1.333e-05    -4.851    -4.875    -0.024     17.50
   BaSO4           8.222e-08   8.223e-08    -7.085    -7.085     0.000     (0)  
   BaOH+           1.700e-13   1.676e-13   -12.770   -12.776    -0.006     (0)  
H(0)          1.891e-23
   H2              9.457e-24   9.458e-24   -23.024   -23.024     0.000     20.00
O(0)          3.824e-09
   O2              1.912e-09   1.912e-09    -8.719    -8.719     0.000     35.00
S(-2)         0.000e+00
   H2S             0.000e+00   0.000e+00   -70.658   -70.658     0.000     51.49
   HS-             0.000e+00   0.000e+00   -72.113   -72.119    -0.006     15.05
   S-2             0.000e+00   0.000e+00   -75.031   -75.055    -0.024     (0)  
S(6)          1.417e-05
   SO4-2           1.301e-05   1.231e-05    -4.886    -4.910    -0.024    -77.90
   HSO4-           1.073e-06   1.058e-06    -5.969    -5.975    -0.006     (0)  
   BaSO4           8.222e-08   8.223e-08    -7.085    -7.085     0.000     (0)  

------------------------------Saturation indices-------------------------------

	Phase               SI   log IAP   log K(491 K, 493 atm)

	Barite           -0.00     -9.78   -9.78  BaSO4
	H2(g)           -20.29    -23.02   -2.74  H2
	H2O(g)            1.41     -0.00   -1.41  H2O
	H2S(g)          -70.16    -77.69   -7.53  H2S
	O2(g)            -5.71     -8.72   -3.01  O2
	Sulfur          -54.39    -51.40    3.00  S


Reaction step 14.

Using solution 1.	
Using pure phase assemblage 1.	
Using temperature 1.	

-------------------------------Phase assemblage--------------------------------

                                                      Moles in assemblage
Phase               SI  log IAP  log K(T, P)   Initial       Final       Delta

Barite            0.08    -9.91     -9.99    1.000e+01   1.000e+01  -1.261e-05

-----------------------------Solution composition------------------------------

	Elements           Molality       Moles

	Ba                1.261e-05   1.261e-05
	S                 1.261e-05   1.261e-05

----------------------------Description of solution----------------------------

                                       pH  =   5.568      Charge balance
                                       pe  =   3.533      Adjusted to redox equilibrium
       Specific Conductance (uS/cm, 233 oC) = 42
                          Density (g/cm3)  =   0.86120
                        Activity of water  =   1.000
                           Ionic strength  =   5.138e-05
                       Mass of water (kg)  =   1.000e+00
                 Total alkalinity (eq/kg)  =  -1.503e-17
                    Total carbon (mol/kg)  =   0.000e+00
                       Total CO2 (mol/kg)  =   0.000e+00
                      Temperature (deg C)  = 233.93
                           Pressure (atm)  = 493.00
                  Electrical balance (eq)  =   1.499e-17
 Percent error, 100*(Cat-|An|)/(Cat+|An|)  =   0.00
                               Iterations  =  17
                                  Total H  = 1.110124e+02
                                  Total O  = 5.550627e+01

----------------------------Distribution of species----------------------------

                                            Log       Log         Log     mole V
   Species          Molality    Activity  Molality  Activity     Gamma   cm3/mol

   OH-             4.297e-06   4.238e-06    -5.367    -5.373    -0.006    -25.74
   H+              2.740e-06   2.703e-06    -5.562    -5.568    -0.006      0.00
   H2O             5.551e+01   1.000e+00     1.744    -0.000     0.000     20.92
Ba            1.261e-05
   Ba+2            1.255e-05   1.188e-05    -4.901    -4.925    -0.024     21.43
   BaSO4           6.192e-08   6.192e-08    -7.208    -7.208     0.000     (0)  
   BaOH+           1.509e-13   1.489e-13   -12.821   -12.827    -0.006     (0)  
H(0)          2.067e-22
   H2              1.034e-22   1.034e-22   -21.986   -21.986     0.000     20.00
O(0)          2.329e-09
   O2              1.164e-09   1.164e-09    -8.934    -8.934     0.000     35.00
S(-2)         0.000e+00
   H2S             0.000e+00   0.000e+00   -67.250   -67.250     0.000     54.00
   HS-             0.000e+00   0.000e+00   -68.872   -68.878    -0.006     15.06
   S-2             0.000e+00   0.000e+00   -71.542   -71.566    -0.024     (0)  
S(6)          1.261e-05
   SO4-2           1.099e-05   1.040e-05    -4.959    -4.983    -0.024    -97.35
   HSO4-           1.557e-06   1.536e-06    -5.808    -5.814    -0.006     (0)  
   BaSO4           6.192e-08   6.192e-08    -7.208    -7.208     0.000     (0)  

------------------------------Saturation indices-------------------------------

	Phase               SI   log IAP   log K(507 K, 493 atm)

	Barite           -0.00     -9.91   -9.91  BaSO4
	H2(g)           -19.31    -21.99   -2.67  H2
	H2O(g)            1.52     -0.00   -1.52  H2O
	H2S(g)          -66.89    -74.45   -7.55  H2S
	O2(g)            -6.00     -8.93   -2.93  O2
	Sulfur          -51.99    -49.05    2.94  S


Reaction step 15.

Using solution 1.	
Using pure phase assemblage 1.	
Using temperature 1.	

-------------------------------Phase assemblage--------------------------------

                                                      Moles in assemblage
Phase               SI  log IAP  log K(T, P)   Initial       Final       Delta

Barite            0.08   -10.04    -10.12    1.000e+01   1.000e+01  -1.130e-05

-----------------------------Solution composition------------------------------

	Elements           Molality       Moles

	Ba                1.130e-05   1.130e-05
	S                 1.130e-05   1.130e-05

----------------------------Description of solution----------------------------

                                       pH  =   5.580      Charge balance
                                       pe  =   3.106      Adjusted to redox equilibrium
       Specific Conductance (uS/cm, 250 oC) = 42
                          Density (g/cm3)  =   0.84267
                        Activity of water  =   1.000
                           Ionic strength  =   4.552e-05
                       Mass of water (kg)  =   1.000e+00
                 Total alkalinity (eq/kg)  =  -1.502e-17
                    Total carbon (mol/kg)  =   0.000e+00
                       Total CO2 (mol/kg)  =   0.000e+00
                      Temperature (deg C)  = 250.00
                           Pressure (atm)  = 493.00
                  Electrical balance (eq)  =   1.500e-17
 Percent error, 100*(Cat-|An|)/(Cat+|An|)  =   0.00
                               Iterations  =  21
                                  Total H  = 1.110124e+02
                                  Total O  = 5.550626e+01

----------------------------Distribution of species----------------------------

                                            Log       Log         Log     mole V
   Species          Molality    Activity  Molality  Activity     Gamma   cm3/mol

   OH-             4.812e-06   4.746e-06    -5.318    -5.324    -0.006    -28.76
   H+              2.664e-06   2.628e-06    -5.575    -5.580    -0.006      0.00
   H2O             5.551e+01   1.000e+00     1.744    -0.000     0.000     21.38
Ba            1.130e-05
   Ba+2            1.125e-05   1.065e-05    -4.949    -4.972    -0.024     25.64
   BaSO4           4.603e-08   4.603e-08    -7.337    -7.337     0.000     (0)  
   BaOH+           1.393e-13   1.374e-13   -12.856   -12.862    -0.006     (0)  
H(0)          1.333e-21
   H2              6.667e-22   6.667e-22   -21.176   -21.176     0.000     20.00
O(0)          3.131e-09
   O2              1.566e-09   1.566e-09    -8.805    -8.805     0.000     35.00
S(-2)         0.000e+00
   H2S             0.000e+00   0.000e+00   -64.740   -64.740     0.000     56.67
   HS-             0.000e+00   0.000e+00   -66.526   -66.532    -0.006     15.07
   S-2             0.000e+00   0.000e+00   -68.941   -68.965    -0.024     (0)  
S(6)          1.130e-05
   SO4-2           9.104e-06   8.620e-06    -5.041    -5.064    -0.024   -118.55
   HSO4-           2.148e-06   2.119e-06    -5.668    -5.674    -0.006     (0)  
   BaSO4           4.603e-08   4.603e-08    -7.337    -7.337     0.000     (0)  

------------------------------Saturation indices-------------------------------

	Phase               SI   log IAP   log K(523 K, 493 atm)

	Barite            0.00    -10.04  -10.04  BaSO4
	H2(g)           -18.57    -21.18   -2.61  H2
	H2O(g)            1.63     -0.00   -1.63  H2O
	H2S(g)          -64.54    -72.11   -7.58  H2S
	O2(g)            -5.96     -8.81   -2.85  O2
	Sulfur          -50.27    -47.37    2.90  S


------------------
End of simulation.
------------------

------------------------------------
Reading input data for simulation 2.
------------------------------------

-----------
End of run.
-----------

