   Input file: Barite_NaCl
  Output file: Barite_NaCl.out
Database file: ../database/vreeqc.dat

------------------
Reading data base.
------------------

	KNOBS
	SOLUTION_MASTER_SPECIES
	SOLUTION_SPECIES
	PHASES
	EXCHANGE_MASTER_SPECIES
	EXCHANGE_SPECIES
	SURFACE_MASTER_SPECIES
	SURFACE_SPECIES
	RATES
	END
------------------------------------
Reading input data for simulation 1.
------------------------------------

	DATABASE ../database/vreeqc.dat
	SOLUTION 1
	 pH 7 charge
	 temp 50
	EQUILIBRIUM_PHASES
	 Barite
	REACTION
	 NaCl 1
	 0 5*0.1 9*0.5
	INCREMENTAL_REACTIONS true
	USER_GRAPH
	 axis_titles "NaCl / M" "Barite solubility / M"
	 10 plot_xy tot("Na"), tot("Ba"), color = Red, symbol = None
	END
-------------------------------------------
Beginning of initial solution calculations.
-------------------------------------------

Initial solution 1.	

-----------------------------Solution composition------------------------------

	Elements           Molality       Moles

	Pure water     

----------------------------Description of solution----------------------------

                                       pH  =   6.638      Charge balance
                                       pe  =   4.000    
       Specific Conductance (uS/cm, 50 oC) = 0
                          Density (g/cm3)  =   0.98808
                        Activity of water  =   1.000
                           Ionic strength  =  2.305e-007
                       Mass of water (kg)  =  1.000e+000
                 Total alkalinity (eq/kg)  = -7.779e-020
                    Total carbon (mol/kg)  =  0.000e+000
                       Total CO2 (mol/kg)  =  0.000e+000
                      Temperature (deg C)  =  50.00
                  Electrical balance (eq)  =  7.779e-020
 Percent error, 100*(Cat-|An|)/(Cat+|An|)  =   0.00
                               Iterations  =   4
                                  Total H  = 1.110124e+002
                                  Total O  = 5.550622e+001

----------------------------Distribution of species----------------------------

                                            Log       Log         Log     mole V
   Species          Molality    Activity  Molality  Activity     Gamma   cm3/mol

   H+             2.305e-007  2.304e-007    -6.637    -6.638    -0.000      0.00
   OH-            2.305e-007  2.304e-007    -6.637    -6.638    -0.000     -5.44
   H2O            5.551e+001  1.000e+000     1.744    -0.000     0.000     18.23
H(0)         5.973e-025
   H2             2.986e-025  2.986e-025   -24.525   -24.525     0.000     20.00
O(0)         2.598e-036
   O2             1.299e-036  1.299e-036   -35.886   -35.886     0.000     35.00

------------------------------Saturation indices-------------------------------

	Phase               SI   log IAP   log K(323 K,   1 atm)

	H2(g)           -21.39    -24.52   -3.14  H2
	H2O(g)           -0.91     -0.00    0.91  H2O
	O2(g)           -32.86    -35.89   -3.03  O2


-----------------------------------------
Beginning of batch-reaction calculations.
-----------------------------------------

Reaction step 1.

Using solution 1.	
Using pure phase assemblage 1.	
Using reaction 1.	

Reaction 1.	

	 0.000e+000 moles of the following reaction have been added:

	                 Relative
	Reactant            moles

	NaCl                 1.00000

	                 Relative
	Element             moles
	Cl                   1.00000
	Na                   1.00000

-------------------------------Phase assemblage--------------------------------

                                                      Moles in assemblage
Phase               SI  log IAP  log K(T, P)   Initial       Final       Delta

Barite            0.00    -9.68     -9.68   1.000e+001  1.000e+001 -1.517e-005

-----------------------------Solution composition------------------------------

	Elements           Molality       Moles

	Ba               1.517e-005  1.517e-005
	S                1.517e-005  1.517e-005

----------------------------Description of solution----------------------------

                                       pH  =   6.638      Charge balance
                                       pe  =   8.783      Adjusted to redox equilibrium
       Specific Conductance (uS/cm, 50 oC) = 7
                          Density (g/cm3)  =   0.98808
                        Activity of water  =   1.000
                           Ionic strength  =  6.050e-005
                       Mass of water (kg)  =  1.000e+000
                 Total alkalinity (eq/kg)  = -2.843e-020
                    Total carbon (mol/kg)  =  0.000e+000
                       Total CO2 (mol/kg)  =  0.000e+000
                      Temperature (deg C)  =  50.00
                  Electrical balance (eq)  =  3.413e-017
 Percent error, 100*(Cat-|An|)/(Cat+|An|)  =   0.00
                               Iterations  =  11
                                  Total H  = 1.110124e+002
                                  Total O  = 5.550628e+001

----------------------------Distribution of species----------------------------

                                            Log       Log         Log     mole V
   Species          Molality    Activity  Molality  Activity     Gamma   cm3/mol

   OH-            2.329e-007  2.307e-007    -6.633    -6.637    -0.004     -5.44
   H+             2.323e-007  2.301e-007    -6.634    -6.638    -0.004      0.00
   H2O            5.551e+001  1.000e+000     1.744    -0.000     0.000     18.23
Ba           1.517e-005
   Ba+2           1.507e-005  1.451e-005    -4.822    -4.838    -0.016    -11.14
   BaSO4          1.055e-007  1.055e-007    -6.977    -6.977     0.000     (0)  
   BaOH+          2.157e-012  2.136e-012   -11.666   -11.670    -0.004     (0)  
H(0)         1.618e-034
   H2             8.092e-035  8.092e-035   -34.092   -34.092     0.000     20.00
O(0)         3.539e-017
   O2             1.769e-017  1.769e-017   -16.752   -16.752     0.000     35.00
S(-2)        0.000e+000
   H2S            0.000e+000  0.000e+000  -104.556  -104.556     0.000     30.00
   HS-            0.000e+000  0.000e+000  -104.601  -104.606    -0.004     15.00
   S-2            0.000e+000  0.000e+000  -110.183  -110.199    -0.016     (0)  
S(6)         1.517e-005
   SO4-2          1.507e-005  1.451e-005    -4.822    -4.838    -0.016     14.00
   BaSO4          1.055e-007  1.055e-007    -6.977    -6.977     0.000     (0)  
   HSO4-          5.940e-010  5.884e-010    -9.226    -9.230    -0.004     (0)  

------------------------------Saturation indices-------------------------------

	Phase               SI   log IAP   log K(323 K,   1 atm)

	Barite            0.00     -9.68   -9.68  BaSO4
	H2(g)           -30.96    -34.09   -3.14  H2
	H2O(g)           -0.91     -0.00    0.91  H2O
	H2S(g)         -103.30   -111.24   -7.95  H2S
	O2(g)           -13.72    -16.75   -3.03  O2
	Sulfur          -78.06    -73.71    4.34  S


Reaction step 2.

Using solution 1.	
Using pure phase assemblage 1.	
Using reaction 1.	

Reaction 1.	

	 1.000e-001 moles of the following reaction have been added:

	                 Relative
	Reactant            moles

	NaCl                 1.00000

	                 Relative
	Element             moles
	Cl                   1.00000
	Na                   1.00000

-------------------------------Phase assemblage--------------------------------

                                                      Moles in assemblage
Phase               SI  log IAP  log K(T, P)   Initial       Final       Delta

Barite            0.00    -9.68     -9.68   1.000e+001  1.000e+001 -2.936e-005

-----------------------------Solution composition------------------------------

	Elements           Molality       Moles

	Ba               4.453e-005  4.453e-005
	Cl               1.000e-001  1.000e-001
	Na               1.000e-001  1.000e-001
	S                4.453e-005  4.453e-005

----------------------------Description of solution----------------------------

                                       pH  =   6.619      Charge balance
                                       pe  =   9.671      Adjusted to redox equilibrium
       Specific Conductance (uS/cm, 50 oC) = 17483
                          Density (g/cm3)  =   0.98808
                        Activity of water  =   0.997
                           Ionic strength  =  1.002e-001
                       Mass of water (kg)  =  1.000e+000
                 Total alkalinity (eq/kg)  =  3.880e-019
                    Total carbon (mol/kg)  =  0.000e+000
                       Total CO2 (mol/kg)  =  0.000e+000
                      Temperature (deg C)  =  50.00
                  Electrical balance (eq)  =  1.267e-012
 Percent error, 100*(Cat-|An|)/(Cat+|An|)  =   0.00
                               Iterations  =   5
                                  Total H  = 1.110124e+002
                                  Total O  = 5.550640e+001

----------------------------Distribution of species----------------------------

                                            Log       Log         Log     mole V
   Species          Molality    Activity  Molality  Activity     Gamma   cm3/mol

   H+             2.937e-007  2.405e-007    -6.532    -6.619    -0.087      0.00
   OH-            2.923e-007  2.200e-007    -6.534    -6.658    -0.124     -5.44
   H2O            5.551e+001  9.966e-001     1.744    -0.001     0.000     18.23
Ba           4.453e-005
   Ba+2           4.443e-005  1.602e-005    -4.352    -4.795    -0.443    -11.12
   BaSO4          1.031e-007  1.055e-007    -6.987    -6.977     0.010     (0)  
   BaOH+          2.913e-012  2.249e-012   -11.536   -11.648    -0.112     (0)  
Cl           1.000e-001
   Cl-            1.000e-001  7.550e-002    -1.000    -1.122    -0.122     23.04
H(0)         2.897e-036
   H2             1.448e-036  1.482e-036   -35.839   -35.829     0.010     20.00
Na           1.000e-001
   Na+            9.999e-002  7.736e-002    -1.000    -1.111    -0.111     -0.04
   NaSO4-         7.638e-006  5.897e-006    -5.117    -5.229    -0.112      5.53
   NaOH           2.070e-009  2.118e-009    -8.684    -8.674     0.010     (0)  
O(0)         1.024e-013
   O2             5.118e-014  5.238e-014   -13.291   -13.281     0.010     35.00
S(-2)        0.000e+000
   HS-            0.000e+000  0.000e+000  -111.448  -111.572    -0.124     15.00
   H2S            0.000e+000  0.000e+000  -111.514  -111.504     0.010     30.00
   S-2            0.000e+000  0.000e+000  -116.742  -117.185    -0.443     (0)  
S(6)         4.453e-005
   SO4-2          3.679e-005  1.314e-005    -4.434    -4.881    -0.447     14.02
   NaSO4-         7.638e-006  5.897e-006    -5.117    -5.229    -0.112      5.53
   BaSO4          1.031e-007  1.055e-007    -6.987    -6.977     0.010     (0)  
   HSO4-          7.214e-010  5.570e-010    -9.142    -9.254    -0.112     (0)  

------------------------------Saturation indices-------------------------------

	Phase               SI   log IAP   log K(323 K,   1 atm)

	Barite            0.00     -9.68   -9.68  BaSO4
	H2(g)           -32.69    -35.83   -3.14  H2
	H2O(g)           -0.91     -0.00    0.91  H2O
	H2S(g)         -110.24   -118.19   -7.95  H2S
	Halite           -3.87     -2.23    1.63  NaCl
	O2(g)           -10.25    -13.28   -3.03  O2
	Sulfur          -83.27    -78.92    4.34  S


Reaction step 3.

Using solution 1.	
Using pure phase assemblage 1.	
Using reaction 1.	

Reaction 1.	

	 1.000e-001 moles of the following reaction have been added:

	                 Relative
	Reactant            moles

	NaCl                 1.00000

	                 Relative
	Element             moles
	Cl                   1.00000
	Na                   1.00000

-------------------------------Phase assemblage--------------------------------

                                                      Moles in assemblage
Phase               SI  log IAP  log K(T, P)   Initial       Final       Delta

Barite            0.00    -9.68     -9.68   1.000e+001  1.000e+001 -1.504e-005

-----------------------------Solution composition------------------------------

	Elements           Molality       Moles

	Ba               5.956e-005  5.956e-005
	Cl               2.000e-001  2.000e-001
	Na               2.000e-001  2.000e-001
	S                5.956e-005  5.956e-005

----------------------------Description of solution----------------------------

                                       pH  =   6.609      Charge balance
                                       pe  =   9.678      Adjusted to redox equilibrium
       Specific Conductance (uS/cm, 50 oC) = 33602
                          Density (g/cm3)  =   0.98808
                        Activity of water  =   0.993
                           Ionic strength  =  2.002e-001
                       Mass of water (kg)  =  1.000e+000
                 Total alkalinity (eq/kg)  = -9.854e-018
                    Total carbon (mol/kg)  =  0.000e+000
                       Total CO2 (mol/kg)  =  0.000e+000
                      Temperature (deg C)  =  50.00
                  Electrical balance (eq)  =  1.268e-012
 Percent error, 100*(Cat-|An|)/(Cat+|An|)  =   0.00
                               Iterations  =   5
                                  Total H  = 1.110124e+002
                                  Total O  = 5.550646e+001

----------------------------Distribution of species----------------------------

                                            Log       Log         Log     mole V
   Species          Molality    Activity  Molality  Activity     Gamma   cm3/mol

   H+             3.110e-007  2.458e-007    -6.507    -6.609    -0.102      0.00
   OH-            3.080e-007  2.145e-007    -6.511    -6.669    -0.157     -5.44
   H2O            5.551e+001  9.932e-001     1.744    -0.003     0.000     18.23
Ba           5.956e-005
   Ba+2           5.946e-005  1.683e-005    -4.226    -4.774    -0.548    -11.12
   BaSO4          1.007e-007  1.055e-007    -6.997    -6.977     0.020     (0)  
   BaOH+          3.130e-012  2.304e-012   -11.504   -11.637    -0.133     (0)  
Cl           2.000e-001
   Cl-            2.000e-001  1.402e-001    -0.699    -0.853    -0.154     23.04
H(0)         2.861e-036
   H2             1.430e-036  1.498e-036   -35.845   -35.825     0.020     20.00
Na           2.000e-001
   Na+            2.000e-001  1.466e-001    -0.699    -0.834    -0.135     -0.04
   NaSO4-         1.445e-005  1.064e-005    -4.840    -4.973    -0.133      5.53
   NaOH           3.738e-009  3.914e-009    -8.427    -8.407     0.020     (0)  
O(0)         9.730e-014
   O2             4.865e-014  5.094e-014   -13.313   -13.293     0.020     35.00
S(-2)        0.000e+000
   HS-            0.000e+000  0.000e+000  -111.403  -111.560    -0.157     15.00
   H2S            0.000e+000  0.000e+000  -111.502  -111.482     0.020     30.00
   S-2            0.000e+000  0.000e+000  -116.634  -117.182    -0.548     (0)  
S(6)         5.956e-005
   SO4-2          4.501e-005  1.251e-005    -4.347    -4.903    -0.556     14.02
   NaSO4-         1.445e-005  1.064e-005    -4.840    -4.973    -0.133      5.53
   BaSO4          1.007e-007  1.055e-007    -6.997    -6.977     0.020     (0)  
   HSO4-          7.360e-010  5.418e-010    -9.133    -9.266    -0.133     (0)  

------------------------------Saturation indices-------------------------------

	Phase               SI   log IAP   log K(323 K,   1 atm)

	Barite            0.00     -9.68   -9.68  BaSO4
	H2(g)           -32.69    -35.82   -3.14  H2
	H2O(g)           -0.91     -0.00    0.91  H2O
	H2S(g)         -110.22   -118.17   -7.95  H2S
	Halite           -3.32     -1.69    1.63  NaCl
	O2(g)           -10.26    -13.29   -3.03  O2
	Sulfur          -83.25    -78.91    4.34  S


Reaction step 4.

Using solution 1.	
Using pure phase assemblage 1.	
Using reaction 1.	

Reaction 1.	

	 1.000e-001 moles of the following reaction have been added:

	                 Relative
	Reactant            moles

	NaCl                 1.00000

	                 Relative
	Element             moles
	Cl                   1.00000
	Na                   1.00000

-------------------------------Phase assemblage--------------------------------

                                                      Moles in assemblage
Phase               SI  log IAP  log K(T, P)   Initial       Final       Delta

Barite            0.00    -9.68     -9.68   1.000e+001  1.000e+001 -1.206e-005

-----------------------------Solution composition------------------------------

	Elements           Molality       Moles

	Ba               7.162e-005  7.162e-005
	Cl               3.000e-001  3.000e-001
	Na               3.000e-001  3.000e-001
	S                7.162e-005  7.162e-005

----------------------------Description of solution----------------------------

                                       pH  =   6.603      Charge balance
                                       pe  =   9.685      Adjusted to redox equilibrium
       Specific Conductance (uS/cm, 50 oC) = 49242
                          Density (g/cm3)  =   0.98808
                        Activity of water  =   0.990
                           Ionic strength  =  3.002e-001
                       Mass of water (kg)  =  1.000e+000
                 Total alkalinity (eq/kg)  = -6.816e-017
                    Total carbon (mol/kg)  =  0.000e+000
                       Total CO2 (mol/kg)  =  0.000e+000
                      Temperature (deg C)  =  50.00
                  Electrical balance (eq)  =  1.590e-012
 Percent error, 100*(Cat-|An|)/(Cat+|An|)  =   0.00
                               Iterations  =   4
                                  Total H  = 1.110124e+002
                                  Total O  = 5.550650e+001

----------------------------Distribution of species----------------------------

                                            Log       Log         Log     mole V
   Species          Molality    Activity  Molality  Activity     Gamma   cm3/mol

   H+             3.222e-007  2.496e-007    -6.492    -6.603    -0.111      0.00
   OH-            3.177e-007  2.105e-007    -6.498    -6.677    -0.179     -5.44
   H2O            5.551e+001  9.898e-001     1.744    -0.004     0.000     18.23
Ba           7.162e-005
   Ba+2           7.152e-005  1.745e-005    -4.146    -4.758    -0.613    -11.12
   BaSO4          9.844e-008  1.055e-007    -7.007    -6.977     0.030     (0)  
   BaOH+          3.245e-012  2.345e-012   -11.489   -11.630    -0.141     (0)  
Cl           3.000e-001
   Cl-            3.000e-001  2.009e-001    -0.523    -0.697    -0.174     23.04
H(0)         2.785e-036
   H2             1.393e-036  1.492e-036   -35.856   -35.826     0.030     20.00
Na           3.000e-001
   Na+            3.000e-001  2.139e-001    -0.523    -0.670    -0.147     -0.04
   NaSO4-         2.071e-005  1.497e-005    -4.684    -4.825    -0.141      5.53
   NaOH           5.232e-009  5.606e-009    -8.281    -8.251     0.030     (0)  
O(0)         9.512e-014
   O2             4.756e-014  5.096e-014   -13.323   -13.293     0.030     35.00
S(-2)        0.000e+000
   HS-            0.000e+000  0.000e+000  -111.391  -111.569    -0.179     15.00
   H2S            0.000e+000  0.000e+000  -111.515  -111.485     0.030     30.00
   S-2            0.000e+000  0.000e+000  -116.586  -117.198    -0.613     (0)  
S(6)         7.162e-005
   SO4-2          5.081e-005  1.206e-005    -4.294    -4.919    -0.625     14.02
   NaSO4-         2.071e-005  1.497e-005    -4.684    -4.825    -0.141      5.53
   BaSO4          9.844e-008  1.055e-007    -7.007    -6.977     0.030     (0)  
   HSO4-          7.340e-010  5.305e-010    -9.134    -9.275    -0.141     (0)  

------------------------------Saturation indices-------------------------------

	Phase               SI   log IAP   log K(323 K,   1 atm)

	Barite            0.00     -9.68   -9.68  BaSO4
	H2(g)           -32.69    -35.83   -3.14  H2
	H2O(g)           -0.91     -0.00    0.91  H2O
	H2S(g)         -110.23   -118.17   -7.95  H2S
	Halite           -3.00     -1.37    1.63  NaCl
	O2(g)           -10.26    -13.29   -3.03  O2
	Sulfur          -83.25    -78.91    4.34  S


Reaction step 5.

Using solution 1.	
Using pure phase assemblage 1.	
Using reaction 1.	

Reaction 1.	

	 1.000e-001 moles of the following reaction have been added:

	                 Relative
	Reactant            moles

	NaCl                 1.00000

	                 Relative
	Element             moles
	Cl                   1.00000
	Na                   1.00000

-------------------------------Phase assemblage--------------------------------

                                                      Moles in assemblage
Phase               SI  log IAP  log K(T, P)   Initial       Final       Delta

Barite            0.00    -9.68     -9.68   1.000e+001  1.000e+001 -1.038e-005

-----------------------------Solution composition------------------------------

	Elements           Molality       Moles

	Ba               8.201e-005  8.201e-005
	Cl               4.000e-001  4.000e-001
	Na               4.000e-001  4.000e-001
	S                8.201e-005  8.201e-005

----------------------------Description of solution----------------------------

                                       pH  =   6.598      Charge balance
                                       pe  =   9.694      Adjusted to redox equilibrium
       Specific Conductance (uS/cm, 50 oC) = 63795
                          Density (g/cm3)  =   0.98808
                        Activity of water  =   0.986
                           Ionic strength  =  4.003e-001
                       Mass of water (kg)  =  1.000e+000
                 Total alkalinity (eq/kg)  = -7.212e-017
                    Total carbon (mol/kg)  =  0.000e+000
                       Total CO2 (mol/kg)  =  0.000e+000
                      Temperature (deg C)  =  50.00
                  Electrical balance (eq)  =  1.592e-012
 Percent error, 100*(Cat-|An|)/(Cat+|An|)  =   0.00
                               Iterations  =   4
                                  Total H  = 1.110124e+002
                                  Total O  = 5.550654e+001

----------------------------Distribution of species----------------------------

                                            Log       Log         Log     mole V
   Species          Molality    Activity  Molality  Activity     Gamma   cm3/mol

   H+             3.304e-007  2.525e-007    -6.481    -6.598    -0.117      0.00
   OH-            3.246e-007  2.073e-007    -6.489    -6.683    -0.195     -5.44
   H2O            5.551e+001  9.864e-001     1.744    -0.006     0.000     18.23
Ba           8.201e-005
   Ba+2           8.191e-005  1.797e-005    -4.087    -4.745    -0.659    -11.12
   BaSO4          9.620e-008  1.055e-007    -7.017    -6.977     0.040     (0)  
   BaOH+          3.305e-012  2.378e-012   -11.481   -11.624    -0.143     (0)  
Cl           4.000e-001
   Cl-            4.000e-001  2.591e-001    -0.398    -0.587    -0.189     23.04
H(0)         2.672e-036
   H2             1.336e-036  1.465e-036   -35.874   -35.834     0.040     20.00
Na           4.000e-001
   Na+            4.000e-001  2.809e-001    -0.398    -0.551    -0.153     -0.04
   NaSO4-         2.652e-005  1.908e-005    -4.576    -4.719    -0.143      5.53
   NaOH           6.611e-009  7.249e-009    -8.180    -8.140     0.040     (0)  
O(0)         9.577e-014
   O2             4.788e-014  5.251e-014   -13.320   -13.280     0.040     35.00
S(-2)        0.000e+000
   HS-            0.000e+000  0.000e+000  -111.408  -111.603    -0.195     15.00
   H2S            0.000e+000  0.000e+000  -111.553  -111.513     0.040     30.00
   S-2            0.000e+000  0.000e+000  -116.578  -117.237    -0.659     (0)  
S(6)         8.201e-005
   SO4-2          5.539e-005  1.171e-005    -4.257    -4.931    -0.675     14.02
   NaSO4-         2.652e-005  1.908e-005    -4.576    -4.719    -0.143      5.53
   BaSO4          9.620e-008  1.055e-007    -7.017    -6.977     0.040     (0)  
   HSO4-          7.243e-010  5.213e-010    -9.140    -9.283    -0.143     (0)  

------------------------------Saturation indices-------------------------------

	Phase               SI   log IAP   log K(323 K,   1 atm)

	Barite            0.00     -9.68   -9.68  BaSO4
	H2(g)           -32.70    -35.83   -3.14  H2
	H2O(g)           -0.92     -0.01    0.91  H2O
	H2S(g)         -110.25   -118.20   -7.95  H2S
	Halite           -2.77     -1.14    1.63  NaCl
	O2(g)           -10.25    -13.28   -3.03  O2
	Sulfur          -83.27    -78.93    4.34  S


Reaction step 6.

Using solution 1.	
Using pure phase assemblage 1.	
Using reaction 1.	

Reaction 1.	

	 1.000e-001 moles of the following reaction have been added:

	                 Relative
	Reactant            moles

	NaCl                 1.00000

	                 Relative
	Element             moles
	Cl                   1.00000
	Na                   1.00000

-------------------------------Phase assemblage--------------------------------

                                                      Moles in assemblage
Phase               SI  log IAP  log K(T, P)   Initial       Final       Delta

Barite            0.00    -9.68     -9.68   1.000e+001  1.000e+001 -9.244e-006

-----------------------------Solution composition------------------------------

	Elements           Molality       Moles

	Ba               9.125e-005  9.125e-005
	Cl               5.000e-001  5.000e-001
	Na               5.000e-001  5.000e-001
	S                9.125e-005  9.125e-005

----------------------------Description of solution----------------------------

                                       pH  =   6.594      Charge balance
                                       pe  =   9.704      Adjusted to redox equilibrium
       Specific Conductance (uS/cm, 50 oC) = 76382
                          Density (g/cm3)  =   0.98808
                        Activity of water  =   0.983
                           Ionic strength  =  5.003e-001
                       Mass of water (kg)  =  1.000e+000
                 Total alkalinity (eq/kg)  = -3.108e-016
                    Total carbon (mol/kg)  =  0.000e+000
                       Total CO2 (mol/kg)  =  0.000e+000
                      Temperature (deg C)  =  50.00
                  Electrical balance (eq)  =  1.592e-012
 Percent error, 100*(Cat-|An|)/(Cat+|An|)  =   0.00
                               Iterations  =   4
                                  Total H  = 1.110124e+002
                                  Total O  = 5.550658e+001

----------------------------Distribution of species----------------------------

                                            Log       Log         Log     mole V
   Species          Molality    Activity  Molality  Activity     Gamma   cm3/mol

   H+             3.370e-007  2.549e-007    -6.472    -6.594    -0.121      0.00
   OH-            3.298e-007  2.047e-007    -6.482    -6.689    -0.207     -5.44
   H2O            5.551e+001  9.830e-001     1.744    -0.007     0.000     18.23
Ba           9.125e-005
   Ba+2           9.115e-005  1.842e-005    -4.040    -4.735    -0.695    -11.12
   BaSO4          9.401e-008  1.055e-007    -7.027    -6.977     0.050     (0)  
   BaOH+          3.331e-012  2.407e-012   -11.477   -11.619    -0.141     (0)  
Cl           5.000e-001
   Cl-            5.000e-001  3.157e-001    -0.301    -0.501    -0.200     23.04
H(0)         2.553e-036
   H2             1.277e-036  1.432e-036   -35.894   -35.844     0.050     20.00
Na           5.000e-001
   Na+            5.000e-001  3.482e-001    -0.301    -0.458    -0.157     -0.04
   NaSO4-         3.194e-005  2.308e-005    -4.496    -4.637    -0.141      5.53
   NaOH           7.905e-009  8.870e-009    -8.102    -8.052     0.050     (0)  
O(0)         9.725e-014
   O2             4.862e-014  5.456e-014   -13.313   -13.263     0.050     35.00
S(-2)        0.000e+000
   HS-            0.000e+000  0.000e+000  -111.436  -111.643    -0.207     15.00
   H2S            0.000e+000  0.000e+000  -111.599  -111.549     0.050     30.00
   S-2            0.000e+000  0.000e+000  -116.587  -117.281    -0.695     (0)  
S(6)         9.125e-005
   SO4-2          5.921e-005  1.143e-005    -4.228    -4.942    -0.715     14.02
   NaSO4-         3.194e-005  2.308e-005    -4.496    -4.637    -0.141      5.53
   BaSO4          9.401e-008  1.055e-007    -7.027    -6.977     0.050     (0)  
   HSO4-          7.106e-010  5.134e-010    -9.148    -9.290    -0.141     (0)  

------------------------------Saturation indices-------------------------------

	Phase               SI   log IAP   log K(323 K,   1 atm)

	Barite            0.00     -9.68   -9.68  BaSO4
	H2(g)           -32.71    -35.84   -3.14  H2
	H2O(g)           -0.92     -0.01    0.91  H2O
	H2S(g)         -110.29   -118.24   -7.95  H2S
	Halite           -2.59     -0.96    1.63  NaCl
	O2(g)           -10.23    -13.26   -3.03  O2
	Sulfur          -83.30    -78.95    4.34  S


Reaction step 7.

Using solution 1.	
Using pure phase assemblage 1.	
Using reaction 1.	

Reaction 1.	

	 5.000e-001 moles of the following reaction have been added:

	                 Relative
	Reactant            moles

	NaCl                 1.00000

	                 Relative
	Element             moles
	Cl                   1.00000
	Na                   1.00000

-------------------------------Phase assemblage--------------------------------

                                                      Moles in assemblage
Phase               SI  log IAP  log K(T, P)   Initial       Final       Delta

Barite            0.00    -9.68     -9.68   1.000e+001  1.000e+001 -3.627e-005

-----------------------------Solution composition------------------------------

	Elements           Molality       Moles

	Ba               1.275e-004  1.275e-004
	Cl               1.000e+000  1.000e+000
	Na               1.000e+000  1.000e+000
	S                1.275e-004  1.275e-004

----------------------------Description of solution----------------------------

                                       pH  =   6.581      Charge balance
                                       pe  =   9.733      Adjusted to redox equilibrium
       Specific Conductance (uS/cm, 50 oC) = 129893
                          Density (g/cm3)  =   0.98808
                        Activity of water  =   0.966
                           Ionic strength  =  1.000e+000
                       Mass of water (kg)  =  1.000e+000
                 Total alkalinity (eq/kg)  = -3.177e-016
                    Total carbon (mol/kg)  =  0.000e+000
                       Total CO2 (mol/kg)  =  0.000e+000
                      Temperature (deg C)  =  50.00
                  Electrical balance (eq)  =  1.594e-012
 Percent error, 100*(Cat-|An|)/(Cat+|An|)  =   0.00
                               Iterations  =   5
                                  Total H  = 1.110124e+002
                                  Total O  = 5.550673e+001

----------------------------Distribution of species----------------------------

                                            Log       Log         Log     mole V
   Species          Molality    Activity  Molality  Activity     Gamma   cm3/mol

   H+             3.575e-007  2.627e-007    -6.447    -6.581    -0.134      0.00
   OH-            3.446e-007  1.952e-007    -6.463    -6.710    -0.247     -5.44
   H2O            5.551e+001  9.660e-001     1.744    -0.015     0.000     18.23
Ba           1.275e-004
   Ba+2           1.274e-004  2.008e-005    -3.895    -4.697    -0.802    -11.12
   BaSO4          8.378e-008  1.055e-007    -7.077    -6.977     0.100     (0)  
   BaOH+          3.200e-012  2.502e-012   -11.495   -11.602    -0.107     (0)  
Cl           1.000e+000
   Cl-            1.000e+000  5.863e-001     0.000    -0.232    -0.232     23.04
H(0)         2.108e-036
   H2             1.054e-036  1.327e-036   -35.977   -35.877     0.100     20.00
Na           1.000e+000
   Na+            9.999e-001  7.011e-001    -0.000    -0.154    -0.154     -0.04
   NaSO4-         5.451e-005  4.262e-005    -4.264    -4.370    -0.107      5.53
   NaOH           1.353e-008  1.703e-008    -7.869    -7.769     0.100     (0)  
O(0)         9.749e-014
   O2             4.875e-014  6.137e-014   -13.312   -13.212     0.100     35.00
S(-2)        0.000e+000
   HS-            0.000e+000  0.000e+000  -111.523  -111.770    -0.247     15.00
   H2S            0.000e+000  0.000e+000  -111.763  -111.663     0.100     30.00
   S-2            0.000e+000  0.000e+000  -116.618  -117.421    -0.802     (0)  
S(6)         1.275e-004
   SO4-2          7.293e-005  1.048e-005    -4.137    -4.980    -0.842     14.02
   NaSO4-         5.451e-005  4.262e-005    -4.264    -4.370    -0.107      5.53
   BaSO4          8.378e-008  1.055e-007    -7.077    -6.977     0.100     (0)  
   HSO4-          6.206e-010  4.853e-010    -9.207    -9.314    -0.107     (0)  

------------------------------Saturation indices-------------------------------

	Phase               SI   log IAP   log K(323 K,   1 atm)

	Barite            0.00     -9.68   -9.68  BaSO4
	H2(g)           -32.74    -35.88   -3.14  H2
	H2O(g)           -0.92     -0.02    0.91  H2O
	H2S(g)         -110.40   -118.35   -7.95  H2S
	Halite           -2.02     -0.39    1.63  NaCl
	O2(g)           -10.18    -13.21   -3.03  O2
	Sulfur          -83.38    -79.04    4.34  S


Reaction step 8.

Using solution 1.	
Using pure phase assemblage 1.	
Using reaction 1.	

Reaction 1.	

	 5.000e-001 moles of the following reaction have been added:

	                 Relative
	Reactant            moles

	NaCl                 1.00000

	                 Relative
	Element             moles
	Cl                   1.00000
	Na                   1.00000

-------------------------------Phase assemblage--------------------------------

                                                      Moles in assemblage
Phase               SI  log IAP  log K(T, P)   Initial       Final       Delta

Barite            0.00    -9.68     -9.68   1.000e+001  1.000e+001 -2.685e-005

-----------------------------Solution composition------------------------------

	Elements           Molality       Moles

	Ba               1.544e-004  1.544e-004
	Cl               1.500e+000  1.500e+000
	Na               1.500e+000  1.500e+000
	S                1.544e-004  1.544e-004

----------------------------Description of solution----------------------------

                                       pH  =   6.573      Charge balance
                                       pe  =   9.751      Adjusted to redox equilibrium
       Specific Conductance (uS/cm, 50 oC) = 175900
                          Density (g/cm3)  =   0.98808
                        Activity of water  =   0.949
                           Ionic strength  =  1.500e+000
                       Mass of water (kg)  =  1.000e+000
                 Total alkalinity (eq/kg)  = -6.149e-016
                    Total carbon (mol/kg)  =  0.000e+000
                       Total CO2 (mol/kg)  =  0.000e+000
                      Temperature (deg C)  =  50.00
                  Electrical balance (eq)  =  4.749e-012
 Percent error, 100*(Cat-|An|)/(Cat+|An|)  =   0.00
                               Iterations  =   4
                                  Total H  = 1.110124e+002
                                  Total O  = 5.550683e+001

----------------------------Distribution of species----------------------------

                                            Log       Log         Log     mole V
   Species          Molality    Activity  Molality  Activity     Gamma   cm3/mol

   H+             3.688e-007  2.670e-007    -6.433    -6.573    -0.140      0.00
   OH-            3.511e-007  1.886e-007    -6.455    -6.724    -0.270     -5.44
   H2O            5.551e+001  9.490e-001     1.744    -0.023     0.000     18.23
Ba           1.544e-004
   Ba+2           1.543e-004  2.121e-005    -3.812    -4.674    -0.862    -11.12
   BaSO4          7.467e-008  1.055e-007    -7.127    -6.977     0.150     (0)  
   BaOH+          2.890e-012  2.554e-012   -11.539   -11.593    -0.054     (0)  
Cl           1.500e+000
   Cl-            1.500e+000  8.489e-001     0.176    -0.071    -0.247     23.04
H(0)         1.788e-036
   H2             8.939e-037  1.263e-036   -36.049   -35.899     0.150     20.00
Na           1.500e+000
   Na+            1.500e+000  1.096e+000     0.176     0.040    -0.136     -0.04
   NaSO4-         7.139e-005  6.309e-005    -4.146    -4.200    -0.054      5.53
   NaOH           1.822e-008  2.573e-008    -7.740    -7.589     0.150     (0)  
O(0)         9.263e-014
   O2             4.631e-014  6.543e-014   -13.334   -13.184     0.150     35.00
S(-2)        0.000e+000
   HS-            0.000e+000  0.000e+000  -111.572  -111.842    -0.270     15.00
   H2S            0.000e+000  0.000e+000  -111.878  -111.728     0.150     30.00
   S-2            0.000e+000  0.000e+000  -116.638  -117.500    -0.862     (0)  
S(6)         1.544e-004
   SO4-2          8.290e-005  9.924e-006    -4.081    -5.003    -0.922     14.02
   NaSO4-         7.139e-005  6.309e-005    -4.146    -4.200    -0.054      5.53
   BaSO4          7.467e-008  1.055e-007    -7.127    -6.977     0.150     (0)  
   HSO4-          5.284e-010  4.670e-010    -9.277    -9.331    -0.054     (0)  

------------------------------Saturation indices-------------------------------

	Phase               SI   log IAP   log K(323 K,   1 atm)

	Barite            0.00     -9.68   -9.68  BaSO4
	H2(g)           -32.76    -35.90   -3.14  H2
	H2O(g)           -0.93     -0.02    0.91  H2O
	H2S(g)         -110.47   -118.42   -7.95  H2S
	Halite           -1.67     -0.03    1.63  NaCl
	O2(g)           -10.15    -13.18   -3.03  O2
	Sulfur          -83.42    -79.08    4.34  S


Reaction step 9.

Using solution 1.	
Using pure phase assemblage 1.	
Using reaction 1.	

Reaction 1.	

	 5.000e-001 moles of the following reaction have been added:

	                 Relative
	Reactant            moles

	NaCl                 1.00000

	                 Relative
	Element             moles
	Cl                   1.00000
	Na                   1.00000

-------------------------------Phase assemblage--------------------------------

                                                      Moles in assemblage
Phase               SI  log IAP  log K(T, P)   Initial       Final       Delta

Barite            0.00    -9.68     -9.68   1.000e+001  1.000e+001 -2.137e-005

-----------------------------Solution composition------------------------------

	Elements           Molality       Moles

	Ba               1.757e-004  1.757e-004
	Cl               2.000e+000  2.000e+000
	Na               2.000e+000  2.000e+000
	S                1.757e-004  1.757e-004

----------------------------Description of solution----------------------------

                                       pH  =   6.569      Charge balance
                                       pe  =   9.769      Adjusted to redox equilibrium
       Specific Conductance (uS/cm, 50 oC) = 221077
                          Density (g/cm3)  =   0.98808
                        Activity of water  =   0.932
                           Ionic strength  =  2.001e+000
                       Mass of water (kg)  =  1.000e+000
                 Total alkalinity (eq/kg)  = -8.288e-016
                    Total carbon (mol/kg)  =  0.000e+000
                       Total CO2 (mol/kg)  =  0.000e+000
                      Temperature (deg C)  =  50.00
                  Electrical balance (eq)  =  4.764e-012
 Percent error, 100*(Cat-|An|)/(Cat+|An|)  =   0.00
                               Iterations  =   4
                                  Total H  = 1.110124e+002
                                  Total O  = 5.550692e+001

----------------------------Distribution of species----------------------------

                                            Log       Log         Log     mole V
   Species          Molality    Activity  Molality  Activity     Gamma   cm3/mol

   H+             3.759e-007  2.696e-007    -6.425    -6.569    -0.144      0.00
   OH-            3.541e-007  1.835e-007    -6.451    -6.736    -0.286     -5.44
   H2O            5.551e+001  9.320e-001     1.744    -0.031     0.000     18.23
Ba           1.757e-004
   Ba+2           1.757e-004  2.203e-005    -3.755    -4.657    -0.902    -11.12
   BaSO4          6.655e-008  1.055e-007    -7.177    -6.977     0.200     (0)  
   BaOH+          2.536e-012  2.581e-012   -11.596   -11.588     0.008     (0)  
Cl           2.000e+000
   Cl-            2.000e+000  1.111e+000     0.301     0.046    -0.255     23.04
H(0)         1.496e-036
   H2             7.480e-037  1.186e-036   -36.126   -35.926     0.200     20.00
Na           2.000e+000
   Na+            2.000e+000  1.545e+000     0.301     0.189    -0.112     -0.04
   NaSO4-         8.410e-005  8.560e-005    -4.075    -4.068     0.008      5.53
   NaOH           2.226e-008  3.528e-008    -7.652    -7.452     0.200     (0)  
O(0)         9.034e-014
   O2             4.517e-014  7.159e-014   -13.345   -13.145     0.200     35.00
S(-2)        0.000e+000
   HS-            0.000e+000  0.000e+000  -111.647  -111.932    -0.286     15.00
   H2S            0.000e+000  0.000e+000  -112.014  -111.814     0.200     30.00
   S-2            0.000e+000  0.000e+000  -116.693  -117.595    -0.902     (0)  
S(6)         1.757e-004
   SO4-2          9.157e-005  9.552e-006    -4.038    -5.020    -0.982     14.02
   NaSO4-         8.410e-005  8.560e-005    -4.075    -4.068     0.008      5.53
   BaSO4          6.655e-008  1.055e-007    -7.177    -6.977     0.200     (0)  
   HSO4-          4.460e-010  4.539e-010    -9.351    -9.343     0.008     (0)  

------------------------------Saturation indices-------------------------------

	Phase               SI   log IAP   log K(323 K,   1 atm)

	Barite            0.00     -9.68   -9.68  BaSO4
	H2(g)           -32.79    -35.93   -3.14  H2
	H2O(g)           -0.94     -0.03    0.91  H2O
	H2S(g)         -110.55   -118.50   -7.95  H2S
	Halite           -1.40      0.23    1.63  NaCl
	O2(g)           -10.12    -13.15   -3.03  O2
	Sulfur          -83.48    -79.14    4.34  S


Reaction step 10.

Using solution 1.	
Using pure phase assemblage 1.	
Using reaction 1.	

Reaction 1.	

	 5.000e-001 moles of the following reaction have been added:

	                 Relative
	Reactant            moles

	NaCl                 1.00000

	                 Relative
	Element             moles
	Cl                   1.00000
	Na                   1.00000

-------------------------------Phase assemblage--------------------------------

                                                      Moles in assemblage
Phase               SI  log IAP  log K(T, P)   Initial       Final       Delta

Barite            0.00    -9.68     -9.68   1.000e+001  1.000e+001 -1.763e-005

-----------------------------Solution composition------------------------------

	Elements           Molality       Moles

	Ba               1.934e-004  1.934e-004
	Cl               2.500e+000  2.500e+000
	Na               2.500e+000  2.500e+000
	S                1.934e-004  1.934e-004

----------------------------Description of solution----------------------------

                                       pH  =   6.567      Charge balance
                                       pe  =   9.787      Adjusted to redox equilibrium
       Specific Conductance (uS/cm, 50 oC) = 270076
                          Density (g/cm3)  =   0.98808
                        Activity of water  =   0.915
                           Ionic strength  =  2.501e+000
                       Mass of water (kg)  =  1.000e+000
                 Total alkalinity (eq/kg)  = -6.565e-016
                    Total carbon (mol/kg)  =  0.000e+000
                       Total CO2 (mol/kg)  =  0.000e+000
                      Temperature (deg C)  =  50.00
                  Electrical balance (eq)  =  4.764e-012
 Percent error, 100*(Cat-|An|)/(Cat+|An|)  =   0.00
                               Iterations  =   4
                                  Total H  = 1.110124e+002
                                  Total O  = 5.550699e+001

----------------------------Distribution of species----------------------------

                                            Log       Log         Log     mole V
   Species          Molality    Activity  Molality  Activity     Gamma   cm3/mol

   H+             3.806e-007  2.711e-007    -6.419    -6.567    -0.147      0.00
   OH-            3.552e-007  1.791e-007    -6.449    -6.747    -0.297     -5.44
   H2O            5.551e+001  9.150e-001     1.744    -0.039     0.000     18.23
Ba           1.934e-004
   Ba+2           1.933e-004  2.266e-005    -3.714    -4.645    -0.931    -11.12
   BaSO4          5.931e-008  1.055e-007    -7.227    -6.977     0.250     (0)  
   BaOH+          2.188e-012  2.592e-012   -11.660   -11.586     0.073     (0)  
Cl           2.500e+000
   Cl-            2.500e+000  1.374e+000     0.398     0.138    -0.260     23.04
H(0)         1.238e-036
   H2             6.189e-037  1.101e-036   -36.208   -35.958     0.250     20.00
Na           2.500e+000
   Na+            2.500e+000  2.057e+000     0.398     0.313    -0.085     -0.04
   NaSO4-         9.358e-005  1.108e-004    -4.029    -3.955     0.073      5.53
   NaOH           2.579e-008  4.587e-008    -7.589    -7.338     0.250     (0)  
O(0)         9.002e-014
   O2             4.501e-014  8.005e-014   -13.347   -13.097     0.250     35.00
S(-2)        0.000e+000
   HS-            0.000e+000  0.000e+000  -111.742  -112.039    -0.297     15.00
   H2S            0.000e+000  0.000e+000  -112.169  -111.919     0.250     30.00
   S-2            0.000e+000  0.000e+000  -116.773  -117.704    -0.931     (0)  
S(6)         1.934e-004
   SO4-2          9.973e-005  9.287e-006    -4.001    -5.032    -1.031     14.02
   NaSO4-         9.358e-005  1.108e-004    -4.029    -3.955     0.073      5.53
   BaSO4          5.931e-008  1.055e-007    -7.227    -6.977     0.250     (0)  
   HSO4-          3.747e-010  4.438e-010    -9.426    -9.353     0.073     (0)  

------------------------------Saturation indices-------------------------------

	Phase               SI   log IAP   log K(323 K,   1 atm)

	Barite            0.00     -9.68   -9.68  BaSO4
	H2(g)           -32.82    -35.96   -3.14  H2
	H2O(g)           -0.95     -0.04    0.91  H2O
	H2S(g)         -110.66   -118.61   -7.95  H2S
	Halite           -1.18      0.45    1.63  NaCl
	O2(g)           -10.07    -13.10   -3.03  O2
	Sulfur          -83.55    -79.21    4.34  S


Reaction step 11.

Using solution 1.	
Using pure phase assemblage 1.	
Using reaction 1.	

Reaction 1.	

	 5.000e-001 moles of the following reaction have been added:

	                 Relative
	Reactant            moles

	NaCl                 1.00000

	                 Relative
	Element             moles
	Cl                   1.00000
	Na                   1.00000

-------------------------------Phase assemblage--------------------------------

                                                      Moles in assemblage
Phase               SI  log IAP  log K(T, P)   Initial       Final       Delta

Barite            0.00    -9.68     -9.68   1.000e+001  1.000e+001 -1.488e-005

-----------------------------Solution composition------------------------------

	Elements           Molality       Moles

	Ba               2.083e-004  2.083e-004
	Cl               3.000e+000  3.000e+000
	Na               3.000e+000  3.000e+000
	S                2.083e-004  2.083e-004

----------------------------Description of solution----------------------------

                                       pH  =   6.566      Charge balance
                                       pe  =   9.794      Adjusted to redox equilibrium
       Specific Conductance (uS/cm, 50 oC) = 327260
                          Density (g/cm3)  =   0.98808
                        Activity of water  =   0.898
                           Ionic strength  =  3.001e+000
                       Mass of water (kg)  =  1.000e+000
                 Total alkalinity (eq/kg)  =  9.650e-017
                    Total carbon (mol/kg)  =  0.000e+000
                       Total CO2 (mol/kg)  =  0.000e+000
                      Temperature (deg C)  =  50.00
                  Electrical balance (eq)  =  1.914e-009
 Percent error, 100*(Cat-|An|)/(Cat+|An|)  =   0.00
                               Iterations  =   3
                                  Total H  = 1.110124e+002
                                  Total O  = 5.550705e+001

----------------------------Distribution of species----------------------------

                                            Log       Log         Log     mole V
   Species          Molality    Activity  Molality  Activity     Gamma   cm3/mol

   H+             3.838e-007  2.719e-007    -6.416    -6.566    -0.150      0.00
   OH-            3.552e-007  1.753e-007    -6.450    -6.756    -0.307     -5.44
   H2O            5.551e+001  8.980e-001     1.744    -0.047     0.000     18.23
Ba           2.083e-004
   Ba+2           2.082e-004  2.316e-005    -3.682    -4.635    -0.954    -11.12
   BaSO4          5.286e-008  1.055e-007    -7.277    -6.977     0.300     (0)  
   BaOH+          1.867e-012  2.591e-012   -11.729   -11.587     0.142     (0)  
Cl           3.000e+000
   Cl-            3.000e+000  1.642e+000     0.477     0.215    -0.262     23.04
H(0)         1.075e-036
   H2             5.374e-037  1.072e-036   -36.270   -35.970     0.300     20.00
Na           3.000e+000
   Na+            3.000e+000  2.643e+000     0.477     0.422    -0.055     -0.04
   NaSO4-         1.005e-004  1.394e-004    -3.998    -3.856     0.142      5.53
   NaOH           2.890e-008  5.767e-008    -7.539    -7.239     0.300     (0)  
O(0)         8.141e-014
   O2             4.071e-014  8.123e-014   -13.390   -13.090     0.300     35.00
S(-2)        0.000e+000
   HS-            0.000e+000  0.000e+000  -111.753  -112.060    -0.307     15.00
   H2S            0.000e+000  0.000e+000  -112.238  -111.938     0.300     30.00
   S-2            0.000e+000  0.000e+000  -116.772  -117.726    -0.954     (0)  
S(6)         2.083e-004
   SO4-2          1.077e-004  9.089e-006    -3.968    -5.041    -1.074     14.02
   NaSO4-         1.005e-004  1.394e-004    -3.998    -3.856     0.142      5.53
   BaSO4          5.286e-008  1.055e-007    -7.277    -6.977     0.300     (0)  
   HSO4-          3.140e-010  4.357e-010    -9.503    -9.361     0.142     (0)  

------------------------------Saturation indices-------------------------------

	Phase               SI   log IAP   log K(323 K,   1 atm)

	Barite            0.00     -9.68   -9.68  BaSO4
	H2(g)           -32.83    -35.97   -3.14  H2
	H2O(g)           -0.96     -0.05    0.91  H2O
	H2S(g)         -110.68   -118.63   -7.95  H2S
	Halite           -1.00      0.64    1.63  NaCl
	O2(g)           -10.06    -13.09   -3.03  O2
	Sulfur          -83.56    -79.22    4.34  S


Reaction step 12.

Using solution 1.	
Using pure phase assemblage 1.	
Using reaction 1.	

Reaction 1.	

	 5.000e-001 moles of the following reaction have been added:

	                 Relative
	Reactant            moles

	NaCl                 1.00000

	                 Relative
	Element             moles
	Cl                   1.00000
	Na                   1.00000

-------------------------------Phase assemblage--------------------------------

                                                      Moles in assemblage
Phase               SI  log IAP  log K(T, P)   Initial       Final       Delta

Barite            0.00    -9.68     -9.68   1.000e+001  1.000e+001 -1.278e-005

-----------------------------Solution composition------------------------------

	Elements           Molality       Moles

	Ba               2.210e-004  2.210e-004
	Cl               3.500e+000  3.500e+000
	Na               3.500e+000  3.500e+000
	S                2.210e-004  2.210e-004

----------------------------Description of solution----------------------------

                                       pH  =   6.565      Charge balance
                                       pe  =   9.819      Adjusted to redox equilibrium
       Specific Conductance (uS/cm, 50 oC) = 397590
                          Density (g/cm3)  =   0.98808
                        Activity of water  =   0.881
                           Ionic strength  =  3.501e+000
                       Mass of water (kg)  =  1.000e+000
                 Total alkalinity (eq/kg)  =  2.524e-017
                    Total carbon (mol/kg)  =  0.000e+000
                       Total CO2 (mol/kg)  =  0.000e+000
                      Temperature (deg C)  =  50.00
                  Electrical balance (eq)  =  2.496e-009
 Percent error, 100*(Cat-|An|)/(Cat+|An|)  =   0.00
                               Iterations  =   3
                                  Total H  = 1.110124e+002
                                  Total O  = 5.550710e+001

----------------------------Distribution of species----------------------------

                                            Log       Log         Log     mole V
   Species          Molality    Activity  Molality  Activity     Gamma   cm3/mol

   H+             3.858e-007  2.722e-007    -6.414    -6.565    -0.151      0.00
   OH-            3.544e-007  1.718e-007    -6.451    -6.765    -0.315     -5.44
   H2O            5.551e+001  8.810e-001     1.744    -0.055     0.000     18.23
Ba           2.210e-004
   Ba+2           2.210e-004  2.355e-005    -3.656    -4.628    -0.972    -11.12
   BaSO4          4.711e-008  1.055e-007    -7.327    -6.977     0.350     (0)  
   BaOH+          1.582e-012  2.582e-012   -11.801   -11.588     0.213     (0)  
Cl           3.500e+000
   Cl-            3.500e+000  1.915e+000     0.544     0.282    -0.262     23.04
H(0)         8.556e-037
   H2             4.278e-037  9.579e-037   -36.369   -36.019     0.350     20.00
Na           3.500e+000
   Na+            3.500e+000  3.312e+000     0.544     0.520    -0.024     -0.04
   NaSO4-         1.052e-004  1.717e-004    -3.978    -3.765     0.213      5.53
   NaOH           3.163e-008  7.083e-008    -7.500    -7.150     0.350     (0)  
O(0)         8.755e-014
   O2             4.377e-014  9.801e-014   -13.359   -13.009     0.350     35.00
S(-2)        0.000e+000
   HS-            0.000e+000  0.000e+000  -111.915  -112.230    -0.315     15.00
   H2S            0.000e+000  0.000e+000  -112.458  -112.108     0.350     30.00
   S-2            0.000e+000  0.000e+000  -116.924  -117.897    -0.972     (0)  
S(6)         2.210e-004
   SO4-2          1.158e-004  8.938e-006    -3.936    -5.049    -1.112     14.02
   NaSO4-         1.052e-004  1.717e-004    -3.978    -3.765     0.213      5.53
   BaSO4          4.711e-008  1.055e-007    -7.327    -6.977     0.350     (0)  
   HSO4-          2.627e-010  4.288e-010    -9.581    -9.368     0.213     (0)  

------------------------------Saturation indices-------------------------------

	Phase               SI   log IAP   log K(323 K,   1 atm)

	Barite            0.00     -9.68   -9.68  BaSO4
	H2(g)           -32.88    -36.02   -3.14  H2
	H2O(g)           -0.96     -0.06    0.91  H2O
	H2S(g)         -110.85   -118.80   -7.95  H2S
	Halite           -0.83      0.80    1.63  NaCl
	O2(g)            -9.98    -13.01   -3.03  O2
	Sulfur          -83.68    -79.34    4.34  S


Reaction step 13.

Using solution 1.	
Using pure phase assemblage 1.	
Using reaction 1.	

Reaction 1.	

	 5.000e-001 moles of the following reaction have been added:

	                 Relative
	Reactant            moles

	NaCl                 1.00000

	                 Relative
	Element             moles
	Cl                   1.00000
	Na                   1.00000

-------------------------------Phase assemblage--------------------------------

                                                      Moles in assemblage
Phase               SI  log IAP  log K(T, P)   Initial       Final       Delta

Barite            0.00    -9.68     -9.68   1.000e+001  1.000e+001 -1.115e-005

-----------------------------Solution composition------------------------------

	Elements           Molality       Moles

	Ba               2.322e-004  2.322e-004
	Cl               4.000e+000  4.000e+000
	Na               4.000e+000  4.000e+000
	S                2.322e-004  2.322e-004

----------------------------Description of solution----------------------------

                                       pH  =   6.565      Charge balance
                                       pe  =   9.841      Adjusted to redox equilibrium
       Specific Conductance (uS/cm, 50 oC) = 474871
                          Density (g/cm3)  =   0.98808
                        Activity of water  =   0.864
                           Ionic strength  =  4.001e+000
                       Mass of water (kg)  =  1.000e+000
                 Total alkalinity (eq/kg)  =  8.028e-017
                    Total carbon (mol/kg)  =  0.000e+000
                       Total CO2 (mol/kg)  =  0.000e+000
                      Temperature (deg C)  =  50.00
                  Electrical balance (eq)  =  2.706e-009
 Percent error, 100*(Cat-|An|)/(Cat+|An|)  =   0.00
                               Iterations  =   3
                                  Total H  = 1.110124e+002
                                  Total O  = 5.550715e+001

----------------------------Distribution of species----------------------------

                                            Log       Log         Log     mole V
   Species          Molality    Activity  Molality  Activity     Gamma   cm3/mol

   H+             3.869e-007  2.720e-007    -6.412    -6.565    -0.153      0.00
   OH-            3.530e-007  1.686e-007    -6.452    -6.773    -0.321     -5.44
   H2O            5.551e+001  8.640e-001     1.744    -0.063     0.000     18.23
Ba           2.322e-004
   Ba+2           2.321e-004  2.387e-005    -3.634    -4.622    -0.988    -11.12
   BaSO4          4.199e-008  1.055e-007    -7.377    -6.977     0.400     (0)  
   BaOH+          1.333e-012  2.569e-012   -11.875   -11.590     0.285     (0)  
Cl           4.000e+000
   Cl-            4.000e+000  2.193e+000     0.602     0.341    -0.261     23.04
H(0)         6.884e-037
   H2             3.442e-037  8.647e-037   -36.463   -36.063     0.400     20.00
Na           4.000e+000
   Na+            4.000e+000  4.076e+000     0.602     0.610     0.008     -0.04
   NaSO4-         1.082e-004  2.085e-004    -3.966    -3.681     0.285      5.53
   NaOH           3.404e-008  8.553e-008    -7.468    -7.068     0.400     (0)  
O(0)         9.209e-014
   O2             4.604e-014  1.157e-013   -13.337   -12.937     0.400     35.00
S(-2)        0.000e+000
   HS-            0.000e+000  0.000e+000  -112.059  -112.380    -0.321     15.00
   H2S            0.000e+000  0.000e+000  -112.658  -112.258     0.400     30.00
   S-2            0.000e+000  0.000e+000  -117.059  -118.046    -0.988     (0)  
S(6)         2.322e-004
   SO4-2          1.240e-004  8.818e-006    -3.907    -5.055    -1.148     14.02
   NaSO4-         1.082e-004  2.085e-004    -3.966    -3.681     0.285      5.53
   BaSO4          4.199e-008  1.055e-007    -7.377    -6.977     0.400     (0)  
   HSO4-          2.193e-010  4.228e-010    -9.659    -9.374     0.285     (0)  

------------------------------Saturation indices-------------------------------

	Phase               SI   log IAP   log K(323 K,   1 atm)

	Barite            0.00     -9.68   -9.68  BaSO4
	H2(g)           -32.93    -36.06   -3.14  H2
	H2O(g)           -0.97     -0.06    0.91  H2O
	H2S(g)         -111.00   -118.95   -7.95  H2S
	Halite           -0.68      0.95    1.63  NaCl
	O2(g)            -9.91    -12.94   -3.03  O2
	Sulfur          -83.79    -79.44    4.34  S


Reaction step 14.

Using solution 1.	
Using pure phase assemblage 1.	
Using reaction 1.	

Reaction 1.	

	 5.000e-001 moles of the following reaction have been added:

	                 Relative
	Reactant            moles

	NaCl                 1.00000

	                 Relative
	Element             moles
	Cl                   1.00000
	Na                   1.00000

-------------------------------Phase assemblage--------------------------------

                                                      Moles in assemblage
Phase               SI  log IAP  log K(T, P)   Initial       Final       Delta

Barite            0.00    -9.68     -9.68   1.000e+001  1.000e+001 -9.865e-006

-----------------------------Solution composition------------------------------

	Elements           Molality       Moles

	Ba               2.420e-004  2.420e-004
	Cl               4.500e+000  4.500e+000
	Na               4.500e+000  4.500e+000
	S                2.420e-004  2.420e-004

----------------------------Description of solution----------------------------

                                       pH  =   6.566      Charge balance
                                       pe  =   9.862      Adjusted to redox equilibrium
       Specific Conductance (uS/cm, 50 oC) = 523862
                          Density (g/cm3)  =   0.98808
                        Activity of water  =   0.847
                           Ionic strength  =  4.501e+000
                       Mass of water (kg)  =  1.000e+000
                 Total alkalinity (eq/kg)  = -5.215e-017
                    Total carbon (mol/kg)  =  0.000e+000
                       Total CO2 (mol/kg)  =  0.000e+000
                      Temperature (deg C)  =  50.00
                  Electrical balance (eq)  =  2.793e-009
 Percent error, 100*(Cat-|An|)/(Cat+|An|)  =   0.00
                               Iterations  =   3
                                  Total H  = 1.110124e+002
                                  Total O  = 5.550719e+001

----------------------------Distribution of species----------------------------

                                            Log       Log         Log     mole V
   Species          Molality    Activity  Molality  Activity     Gamma   cm3/mol

   H+             3.872e-007  2.715e-007    -6.412    -6.566    -0.154      0.00
   OH-            3.513e-007  1.656e-007    -6.454    -6.781    -0.327     -5.44
   H2O            5.551e+001  8.470e-001     1.744    -0.072     0.000     18.23
Ba           2.420e-004
   Ba+2           2.420e-004  2.414e-005    -3.616    -4.617    -1.001    -11.12
   BaSO4          3.742e-008  1.055e-007    -7.427    -6.977     0.450     (0)  
   BaOH+          1.118e-012  2.551e-012   -11.951   -11.593     0.358     (0)  
Cl           4.500e+000
   Cl-            4.500e+000  2.478e+000     0.653     0.394    -0.259     23.04
H(0)         5.544e-037
   H2             2.772e-037  7.814e-037   -36.557   -36.107     0.450     20.00
Na           4.500e+000
   Na+            4.500e+000  4.946e+000     0.653     0.694     0.041     -0.04
   NaSO4-         1.097e-004  2.502e-004    -3.960    -3.602     0.358      5.53
   NaOH           3.616e-008  1.019e-007    -7.442    -6.992     0.450     (0)  
O(0)         9.657e-014
   O2             4.829e-014  1.361e-013   -13.316   -12.866     0.450     35.00
S(-2)        0.000e+000
   HS-            0.000e+000  0.000e+000  -112.200  -112.527    -0.327     15.00
   H2S            0.000e+000  0.000e+000  -112.856  -112.406     0.450     30.00
   S-2            0.000e+000  0.000e+000  -117.191  -118.193    -1.001     (0)  
S(6)         2.420e-004
   SO4-2          1.323e-004  8.720e-006    -3.878    -5.059    -1.181     14.02
   NaSO4-         1.097e-004  2.502e-004    -3.960    -3.602     0.358      5.53
   BaSO4          3.742e-008  1.055e-007    -7.427    -6.977     0.450     (0)  
   HSO4-          1.829e-010  4.173e-010    -9.738    -9.380     0.358     (0)  

------------------------------Saturation indices-------------------------------

	Phase               SI   log IAP   log K(323 K,   1 atm)

	Barite            0.00     -9.68   -9.68  BaSO4
	H2(g)           -32.97    -36.11   -3.14  H2
	H2O(g)           -0.98     -0.07    0.91  H2O
	H2S(g)         -111.15   -119.09   -7.95  H2S
	Halite           -0.55      1.09    1.63  NaCl
	O2(g)            -9.84    -12.87   -3.03  O2
	Sulfur          -83.89    -79.55    4.34  S


Reaction step 15.

Using solution 1.	
Using pure phase assemblage 1.	
Using reaction 1.	

Reaction 1.	

	 5.000e-001 moles of the following reaction have been added:

	                 Relative
	Reactant            moles

	NaCl                 1.00000

	                 Relative
	Element             moles
	Cl                   1.00000
	Na                   1.00000

-------------------------------Phase assemblage--------------------------------

                                                      Moles in assemblage
Phase               SI  log IAP  log K(T, P)   Initial       Final       Delta

Barite            0.00    -9.68     -9.68   1.000e+001  1.000e+001 -8.854e-006

-----------------------------Solution composition------------------------------

	Elements           Molality       Moles

	Ba               2.509e-004  2.509e-004
	Cl               5.000e+000  5.000e+000
	Na               5.000e+000  5.000e+000
	S                2.509e-004  2.509e-004

----------------------------Description of solution----------------------------

                                       pH  =   6.568      Charge balance
                                       pe  =   9.877      Adjusted to redox equilibrium
       Specific Conductance (uS/cm, 50 oC) = 572679
                          Density (g/cm3)  =   0.98808
                        Activity of water  =   0.830
                           Ionic strength  =  5.001e+000
                       Mass of water (kg)  =  1.000e+000
                 Total alkalinity (eq/kg)  =  1.599e-015
                    Total carbon (mol/kg)  =  0.000e+000
                       Total CO2 (mol/kg)  =  0.000e+000
                      Temperature (deg C)  =  50.00
                  Electrical balance (eq)  =  2.832e-009
 Percent error, 100*(Cat-|An|)/(Cat+|An|)  =   0.00
                               Iterations  =   3
                                  Total H  = 1.110124e+002
                                  Total O  = 5.550722e+001

----------------------------Distribution of species----------------------------

                                            Log       Log         Log     mole V
   Species          Molality    Activity  Molality  Activity     Gamma   cm3/mol

   H+             3.870e-007  2.707e-007    -6.412    -6.568    -0.155      0.00
   OH-            3.492e-007  1.627e-007    -6.457    -6.789    -0.332     -5.44
   H2O            5.551e+001  8.300e-001     1.744    -0.081     0.000     18.23
Ba           2.509e-004
   Ba+2           2.509e-004  2.437e-005    -3.601    -4.613    -1.013    -11.12
   BaSO4          3.335e-008  1.055e-007    -7.477    -6.977     0.500     (0)  
   BaOH+          9.356e-013  2.532e-012   -12.029   -11.597     0.432     (0)  
Cl           5.000e+000
   Cl-            5.000e+000  2.770e+000     0.699     0.442    -0.257     23.04
H(0)         4.592e-037
   H2             2.296e-037  7.262e-037   -36.639   -36.139     0.500     20.00
Na           5.000e+000
   Na+            5.000e+000  5.936e+000     0.699     0.773     0.075     -0.04
   NaSO4-         1.099e-004  2.974e-004    -3.959    -3.527     0.432      5.53
   NaOH           3.802e-008  1.202e-007    -7.420    -6.920     0.500     (0)  
O(0)         9.571e-014
   O2             4.785e-014  1.514e-013   -13.320   -12.820     0.500     35.00
S(-2)        0.000e+000
   HS-            0.000e+000  0.000e+000  -112.293  -112.625    -0.332     15.00
   H2S            0.000e+000  0.000e+000  -113.005  -112.505     0.500     30.00
   S-2            0.000e+000  0.000e+000  -117.276  -118.289    -1.013     (0)  
S(6)         2.509e-004
   SO4-2          1.409e-004  8.637e-006    -3.851    -5.064    -1.213     14.02
   NaSO4-         1.099e-004  2.974e-004    -3.959    -3.527     0.432      5.53
   BaSO4          3.335e-008  1.055e-007    -7.477    -6.977     0.500     (0)  
   HSO4-          1.523e-010  4.121e-010    -9.817    -9.385     0.432     (0)  

------------------------------Saturation indices-------------------------------

	Phase               SI   log IAP   log K(323 K,   1 atm)

	Barite            0.00     -9.68   -9.68  BaSO4
	H2(g)           -33.00    -36.14   -3.14  H2
	H2O(g)           -0.99     -0.08    0.91  H2O
	H2S(g)         -111.25   -119.19   -7.95  H2S
	Halite           -0.42      1.22    1.63  NaCl
	O2(g)            -9.79    -12.82   -3.03  O2
	Sulfur          -83.96    -79.62    4.34  S


------------------
End of simulation.
------------------

------------------------------------
Reading input data for simulation 2.
------------------------------------

-----------
End of run.
-----------

