WARNING: Database file from DATABASE keyword is used; command line argument ignored.
   Input file: Barite_tc
  Output file: Barite_tc.out
Database file: ../database/phreeqc.dat

------------------
Reading data base.
------------------

	SOLUTION_MASTER_SPECIES
	SOLUTION_SPECIES
	PHASES
	GAS_BINARY_PARAMETERS
	EXCHANGE_MASTER_SPECIES
	EXCHANGE_SPECIES
	SURFACE_MASTER_SPECIES
	SURFACE_SPECIES
	MEAN_GAMMAS
	RATES
	END
------------------------------------
Reading input data for simulation 1.
------------------------------------

	DATABASE ../database/phreeqc.dat
	SELECTED_OUTPUT 101
	    file                 Barite_tc_101.sel
	USER_PUNCH 101
	    headings Mu SC
	    start
	10 PUNCH STR_F$(MU, 20, 12)
	20 PUNCH STR_F$(SC, 20, 10)
	    end
	SOLUTION 1
	 pH 7 charge
	 temp 50
	 pressure 493
	EQUILIBRIUM_PHASES
	 Barite
	REACTION_TEMPERATURE
	 25 250 in 15
	USER_GRAPH
	 -plot_csv barite_tc.dat
	 -axis_scale y_axis 10e-6 30e-6
	 -chart_title "Barite solubility at 500 bar"
	 axis_titles "Temperature / oC" "Barite solubility / M"
	 10 plot_xy tc, tot("Ba"), color = Red, symbol = None
	END
-------------------------------------------
Beginning of initial solution calculations.
-------------------------------------------

Initial solution 1.	

-----------------------------Solution composition------------------------------

	Elements           Molality       Moles

	Pure water     

----------------------------Description of solution----------------------------

                                       pH  =   6.542      Charge balance
                                       pe  =   4.000    
      Specific Conductance (µS/cm,  50°C)  = 0
                          Density (g/cm³)  =   1.00857
                               Volume (L)  =   0.99150
                        Viscosity (mPa s)  =   0.55730
                        Activity of water  =   1.000
                 Ionic strength (mol/kgw)  =   2.875e-07
                       Mass of water (kg)  =   1.000e+00
                 Total alkalinity (eq/kg)  =  -5.163e-17
                         Temperature (°C)  =  50.00
                           Pressure (atm)  = 493.00
                  Electrical balance (eq)  =   5.163e-17
 Percent error, 100*(Cat-|An|)/(Cat+|An|)  =   0.00
                               Iterations  =   4
                                  Total H  = 1.110124e+02
                                  Total O  = 5.550622e+01

----------------------------Distribution of species----------------------------

                                               Log       Log       Log    mole V
   Species          Molality    Activity  Molality  Activity     Gamma   cm³/mol

   H+              2.875e-07   2.873e-07    -6.541    -6.542    -0.000      0.00
   OH-             2.875e-07   2.873e-07    -6.541    -6.542    -0.000     -4.28
   H2O             5.551e+01   1.000e+00     1.744    -0.000     0.000     17.86
H(0)          5.486e-25
   H2              2.743e-25   2.743e-25   -24.562   -24.562     0.000     28.39
O(0)          1.614e-36
   O2              8.068e-37   8.068e-37   -36.093   -36.093     0.000     30.96

------------------------------Saturation indices-------------------------------

  Phase               SI** log IAP   log K(323 K, 493 atm)

  H2(g)           -21.20    -24.56   -3.37  H2
  H2O(g)           -0.77     -0.00    0.77  H2O
  O2(g)           -32.81    -36.09   -3.28  O2

**For a gas, SI = log10(fugacity). Fugacity = pressure * phi / 1 atm.
  For ideal gases, phi = 1.

-----------------------------------------
Beginning of batch-reaction calculations.
-----------------------------------------

Reaction step 1.

Using solution 1.	
Using pure phase assemblage 1.	
Using temperature 1.	

-------------------------------Phase assemblage--------------------------------

                                                      Moles in assemblage
Phase               SI  log IAP  log K(T, P)   Initial       Final       Delta

Barite           -0.00    -9.51     -9.51    1.000e+01   1.000e+01  -1.892e-05

-----------------------------Solution composition------------------------------

	Elements           Molality       Moles

	Ba                1.892e-05   1.892e-05
	S                 1.892e-05   1.892e-05

----------------------------Description of solution----------------------------

                                       pH  =   6.909      Charge balance
                                       pe  =  -1.532      Adjusted to redox equilibrium
      Specific Conductance (µS/cm,  25°C)  = 5
                          Density (g/cm³)  =   1.01844
                               Volume (L)  =   0.98190
                        Viscosity (mPa s)  =   0.88733
                        Activity of water  =   1.000
                 Ionic strength (mol/kgw)  =   7.320e-05
                       Mass of water (kg)  =   1.000e+00
                 Total alkalinity (eq/kg)  =  -5.134e-17
                         Temperature (°C)  =  25.00
                           Pressure (atm)  = 493.00
                  Electrical balance (eq)  =   5.149e-17
 Percent error, 100*(Cat-|An|)/(Cat+|An|)  =   0.00
                               Iterations  =  13
                                  Total H  = 1.110124e+02
                                  Total O  = 5.550629e+01

----------------------------Distribution of species----------------------------

                                               Log       Log       Log    mole V
   Species          Molality    Activity  Molality  Activity     Gamma   cm³/mol

   OH-             1.246e-07   1.234e-07    -6.905    -6.909    -0.004     -2.54
   H+              1.244e-07   1.232e-07    -6.905    -6.909    -0.004      0.00
   H2O             5.551e+01   1.000e+00     1.744    -0.000     0.000     17.69
Ba            1.892e-05
   Ba+2            1.827e-05   1.757e-05    -4.738    -4.755    -0.017     -9.24
   BaSO4           6.498e-07   6.498e-07    -6.187    -6.187     0.000     24.51
   BaOH+           5.782e-12   5.726e-12   -11.238   -11.242    -0.004     (0)  
H(0)          1.409e-14
   H2              7.047e-15   7.047e-15   -14.152   -14.152     0.000     28.40
O(0)          0.000e+00
   O2              0.000e+00   0.000e+00   -64.506   -64.506     0.000     29.77
S(-2)         4.028e-22
   HS-             2.164e-22   2.143e-22   -21.665   -21.669    -0.004     20.79
   H2S             1.864e-22   1.864e-22   -21.730   -21.730     0.000     31.45
   S-2             3.317e-28   3.191e-28   -27.479   -27.496    -0.017     (0)  
   (H2S)2          0.000e+00   0.000e+00   -44.620   -44.620     0.000     49.42
S(6)          1.892e-05
   SO4-2           1.827e-05   1.757e-05    -4.738    -4.755    -0.017     18.42
   BaSO4           6.498e-07   6.498e-07    -6.187    -6.187     0.000     24.51
   HSO4-           1.396e-10   1.382e-10    -9.855    -9.859    -0.004     39.35

------------------------------Saturation indices-------------------------------

  Phase               SI** log IAP   log K(298 K, 493 atm)

  Barite           -0.00     -9.51   -9.51  BaSO4
  H2(g)           -10.80    -14.15   -3.35  H2
  H2O(g)           -1.35     -0.00    1.35  H2O
  H2S(g)          -20.46    -28.58   -8.12  H2S
  O2(g)           -61.35    -64.51   -3.15  O2
  Sulfur          -15.58    -10.98    4.61  S

**For a gas, SI = log10(fugacity). Fugacity = pressure * phi / 1 atm.
  For ideal gases, phi = 1.

Reaction step 2.

Using solution 1.	
Using pure phase assemblage 1.	
Using temperature 1.	

-------------------------------Phase assemblage--------------------------------

                                                      Moles in assemblage
Phase               SI  log IAP  log K(T, P)   Initial       Final       Delta

Barite           -0.00    -9.45     -9.45    1.000e+01   1.000e+01  -2.102e-05

-----------------------------Solution composition------------------------------

	Elements           Molality       Moles

	Ba                2.102e-05   2.102e-05
	S                 2.102e-05   2.102e-05

----------------------------Description of solution----------------------------

                                       pH  =   6.663      Charge balance
                                       pe  =  -1.312      Adjusted to redox equilibrium
      Specific Conductance (µS/cm,  41°C)  = 7
                          Density (g/cm³)  =   1.01249
                               Volume (L)  =   0.98767
                        Viscosity (mPa s)  =   0.64813
                        Activity of water  =   1.000
                 Ionic strength (mol/kgw)  =   7.863e-05
                       Mass of water (kg)  =   1.000e+00
                 Total alkalinity (eq/kg)  =  -5.003e-17
                         Temperature (°C)  =  41.07
                           Pressure (atm)  = 493.00
                  Electrical balance (eq)  =   5.043e-17
 Percent error, 100*(Cat-|An|)/(Cat+|An|)  =   0.00
                               Iterations  =  13
                                  Total H  = 1.110124e+02
                                  Total O  = 5.550630e+01

----------------------------Distribution of species----------------------------

                                               Log       Log       Log    mole V
   Species          Molality    Activity  Molality  Activity     Gamma   cm³/mol

   OH-             2.199e-07   2.177e-07    -6.658    -6.662    -0.004     -3.68
   H+              2.196e-07   2.173e-07    -6.658    -6.663    -0.004      0.00
   H2O             5.551e+01   1.000e+00     1.744    -0.000     0.000     17.79
Ba            2.102e-05
   Ba+2            1.960e-05   1.881e-05    -4.708    -4.726    -0.018     -8.71
   BaSO4           1.419e-06   1.419e-06    -5.848    -5.848     0.000     20.94
   BaOH+           3.523e-12   3.487e-12   -11.453   -11.458    -0.004     (0)  
H(0)          1.409e-14
   H2              7.047e-15   7.047e-15   -14.152   -14.152     0.000     28.39
O(0)          0.000e+00
   O2              0.000e+00   0.000e+00   -59.464   -59.464     0.000     30.60
S(-2)         7.863e-24
   HS-             3.990e-24   3.949e-24   -23.399   -23.404    -0.004     21.12
   H2S             3.873e-24   3.873e-24   -23.412   -23.412     0.000     34.18
   S-2             9.727e-30   9.334e-30   -29.012   -29.030    -0.018     (0)  
   (H2S)2          0.000e+00   0.000e+00   -47.785   -47.785     0.000     48.79
S(6)          2.102e-05
   SO4-2           1.960e-05   1.881e-05    -4.708    -4.726    -0.018     19.03
   BaSO4           1.419e-06   1.419e-06    -5.848    -5.848     0.000     20.94
   HSO4-           3.907e-10   3.867e-10    -9.408    -9.413    -0.004     39.96

------------------------------Saturation indices-------------------------------

  Phase               SI** log IAP   log K(314 K, 493 atm)

  Barite           -0.00     -9.45   -9.45  BaSO4
  H2(g)           -10.79    -14.15   -3.36  H2
  H2O(g)           -0.97     -0.00    0.97  H2O
  H2S(g)          -21.98    -30.07   -8.09  H2S
  O2(g)           -56.22    -59.46   -3.24  O2
  Sulfur          -16.95    -12.71    4.24  S

**For a gas, SI = log10(fugacity). Fugacity = pressure * phi / 1 atm.
  For ideal gases, phi = 1.

Reaction step 3.

Using solution 1.	
Using pure phase assemblage 1.	
Using temperature 1.	

-------------------------------Phase assemblage--------------------------------

                                                      Moles in assemblage
Phase               SI  log IAP  log K(T, P)   Initial       Final       Delta

Barite           -0.00    -9.42     -9.42    1.000e+01   1.000e+01  -2.286e-05

-----------------------------Solution composition------------------------------

	Elements           Molality       Moles

	Ba                2.286e-05   2.286e-05
	S                 2.286e-05   2.286e-05

----------------------------Description of solution----------------------------

                                       pH  =   6.453      Charge balance
                                       pe  =  -1.126      Adjusted to redox equilibrium
      Specific Conductance (µS/cm,  57°C)  = 10
                          Density (g/cm³)  =   1.00517
                               Volume (L)  =   0.99486
                        Viscosity (mPa s)  =   0.49897
                        Activity of water  =   1.000
                 Ionic strength (mol/kgw)  =   8.137e-05
                       Mass of water (kg)  =   1.000e+00
                 Total alkalinity (eq/kg)  =  -4.649e-17
                         Temperature (°C)  =  57.14
                           Pressure (atm)  = 493.00
                  Electrical balance (eq)  =   4.808e-17
 Percent error, 100*(Cat-|An|)/(Cat+|An|)  =   0.00
                               Iterations  =  13
                                  Total H  = 1.110124e+02
                                  Total O  = 5.550631e+01

----------------------------Distribution of species----------------------------

                                               Log       Log       Log    mole V
   Species          Molality    Activity  Molality  Activity     Gamma   cm³/mol

   OH-             3.572e-07   3.534e-07    -6.447    -6.452    -0.005     -4.73
   H+              3.562e-07   3.525e-07    -6.448    -6.453    -0.005      0.00
   H2O             5.551e+01   1.000e+00     1.744    -0.000     0.000     17.92
Ba            2.286e-05
   Ba+2            2.025e-05   1.940e-05    -4.693    -4.712    -0.019     -8.41
   BaSO4           2.602e-06   2.602e-06    -5.585    -5.585     0.000     18.42
   BaOH+           2.240e-12   2.216e-12   -11.650   -11.654    -0.005     (0)  
H(0)          1.409e-14
   H2              7.047e-15   7.047e-15   -14.152   -14.152     0.000     28.38
O(0)          0.000e+00
   O2              0.000e+00   0.000e+00   -54.992   -54.992     0.000     31.22
S(-2)         2.181e-25
   H2S             1.169e-25   1.169e-25   -24.932   -24.932     0.000     36.14
   HS-             1.012e-25   1.001e-25   -24.995   -25.000    -0.005     21.15
   S-2             3.837e-31   3.674e-31   -30.416   -30.435    -0.019     (0)  
   (H2S)2          0.000e+00   0.000e+00   -50.678   -50.678     0.000     47.98
S(6)          2.286e-05
   SO4-2           2.025e-05   1.940e-05    -4.693    -4.712    -0.019     18.85
   BaSO4           2.602e-06   2.602e-06    -5.585    -5.585     0.000     18.42
   HSO4-           9.951e-10   9.844e-10    -9.002    -9.007    -0.005     40.22

------------------------------Saturation indices-------------------------------

  Phase               SI** log IAP   log K(330 K, 493 atm)

  Barite           -0.00     -9.42   -9.42  BaSO4
  H2(g)           -10.79    -14.15   -3.36  H2
  H2O(g)           -0.63     -0.00    0.63  H2O
  H2S(g)          -23.37    -31.45   -8.08  H2S
  O2(g)           -51.69    -54.99   -3.30  O2
  Sulfur          -18.20    -14.28    3.92  S

**For a gas, SI = log10(fugacity). Fugacity = pressure * phi / 1 atm.
  For ideal gases, phi = 1.

Reaction step 4.

Using solution 1.	
Using pure phase assemblage 1.	
Using temperature 1.	

-------------------------------Phase assemblage--------------------------------

                                                      Moles in assemblage
Phase               SI  log IAP  log K(T, P)   Initial       Final       Delta

Barite           -0.00    -9.43     -9.43    1.000e+01   1.000e+01  -2.433e-05

-----------------------------Solution composition------------------------------

	Elements           Molality       Moles

	Ba                2.433e-05   2.433e-05
	S                 2.433e-05   2.433e-05

----------------------------Description of solution----------------------------

                                       pH  =   6.273      Charge balance
                                       pe  =  -0.969      Adjusted to redox equilibrium
      Specific Conductance (µS/cm,  73°C)  = 12
                          Density (g/cm³)  =   0.99670
                               Volume (L)  =   1.00331
                        Viscosity (mPa s)  =   0.39962
                        Activity of water  =   1.000
                 Ionic strength (mol/kgw)  =   8.132e-05
                       Mass of water (kg)  =   1.000e+00
                 Total alkalinity (eq/kg)  =  -4.001e-17
                         Temperature (°C)  =  73.21
                           Pressure (atm)  = 493.00
                  Electrical balance (eq)  =   4.359e-17
 Percent error, 100*(Cat-|An|)/(Cat+|An|)  =   0.00
                               Iterations  =  13
                                  Total H  = 1.110124e+02
                                  Total O  = 5.550631e+01

----------------------------Distribution of species----------------------------

                                               Log       Log       Log    mole V
   Species          Molality    Activity  Molality  Activity     Gamma   cm³/mol

   OH-             5.412e-07   5.352e-07    -6.267    -6.271    -0.005     -5.80
   H+              5.389e-07   5.330e-07    -6.268    -6.273    -0.005      0.00
   H2O             5.551e+01   1.000e+00     1.744    -0.000     0.000     18.08
Ba            2.433e-05
   Ba+2            2.020e-05   1.931e-05    -4.695    -4.714    -0.019     -8.25
   BaSO4           4.129e-06   4.130e-06    -5.384    -5.384     0.000     16.51
   BaOH+           1.472e-12   1.455e-12   -11.832   -11.837    -0.005     (0)  
H(0)          1.409e-14
   H2              7.047e-15   7.047e-15   -14.152   -14.152     0.000     28.38
O(0)          0.000e+00
   O2              0.000e+00   0.000e+00   -51.032   -51.032     0.000     31.74
S(-2)         8.236e-27
   H2S             4.855e-27   4.856e-27   -26.314   -26.314     0.000     37.66
   HS-             3.381e-27   3.343e-27   -26.471   -26.476    -0.005     20.93
   S-2             1.954e-32   1.868e-32   -31.709   -31.729    -0.019     (0)  
   (H2S)2          0.000e+00   0.000e+00   -53.333   -53.333     0.000     46.99
S(6)          2.433e-05
   SO4-2           2.019e-05   1.931e-05    -4.695    -4.714    -0.019     18.05
   BaSO4           4.129e-06   4.130e-06    -5.384    -5.384     0.000     16.51
   HSO4-           2.331e-09   2.305e-09    -8.632    -8.637    -0.005     40.21

------------------------------Saturation indices-------------------------------

  Phase               SI** log IAP   log K(346 K, 493 atm)

  Barite           -0.00     -9.43   -9.43  BaSO4
  H2(g)           -10.80    -14.15   -3.35  H2
  H2O(g)           -0.32     -0.00    0.32  H2O
  H2S(g)          -24.66    -32.75   -8.09  H2S
  O2(g)           -47.70    -51.03   -3.33  O2
  Sulfur          -19.33    -15.70    3.63  S

**For a gas, SI = log10(fugacity). Fugacity = pressure * phi / 1 atm.
  For ideal gases, phi = 1.

Reaction step 5.

Using solution 1.	
Using pure phase assemblage 1.	
Using temperature 1.	

-------------------------------Phase assemblage--------------------------------

                                                      Moles in assemblage
Phase               SI  log IAP  log K(T, P)   Initial       Final       Delta

Barite           -0.00    -9.46     -9.46    1.000e+01   1.000e+01  -2.529e-05

-----------------------------Solution composition------------------------------

	Elements           Molality       Moles

	Ba                2.529e-05   2.529e-05
	S                 2.529e-05   2.529e-05

----------------------------Description of solution----------------------------

                                       pH  =   6.120      Charge balance
                                       pe  =  -0.835      Adjusted to redox equilibrium
      Specific Conductance (µS/cm,  89°C)  = 14
                          Density (g/cm³)  =   0.98719
                               Volume (L)  =   1.01298
                        Viscosity (mPa s)  =   0.33016
                        Activity of water  =   1.000
                 Ionic strength (mol/kgw)  =   7.873e-05
                       Mass of water (kg)  =   1.000e+00
                 Total alkalinity (eq/kg)  =  -3.129e-17
                         Temperature (°C)  =  89.29
                           Pressure (atm)  = 493.00
                  Electrical balance (eq)  =   3.778e-17
 Percent error, 100*(Cat-|An|)/(Cat+|An|)  =   0.00
                               Iterations  =  13
                                  Total H  = 1.110124e+02
                                  Total O  = 5.550632e+01

----------------------------Distribution of species----------------------------

                                               Log       Log       Log    mole V
   Species          Molality    Activity  Molality  Activity     Gamma   cm³/mol

   OH-             7.730e-07   7.642e-07    -6.112    -6.117    -0.005     -6.94
   H+              7.679e-07   7.593e-07    -6.115    -6.120    -0.005      0.00
   H2O             5.551e+01   1.000e+00     1.744    -0.000     0.000     18.25
Ba            2.529e-05
   Ba+2            1.949e-05   1.862e-05    -4.710    -4.730    -0.020     -8.20
   BaSO4           5.794e-06   5.794e-06    -5.237    -5.237     0.000     14.96
   BaOH+           9.925e-13   9.813e-13   -12.003   -12.008    -0.005     (0)  
H(0)          1.409e-14
   H2              7.047e-15   7.047e-15   -14.152   -14.152     0.000     28.37
O(0)          0.000e+00
   O2              0.000e+00   0.000e+00   -47.538   -47.538     0.000     32.20
S(-2)         4.092e-28
   H2S             2.658e-28   2.658e-28   -27.575   -27.575     0.000     38.93
   HS-             1.434e-28   1.417e-28   -27.844   -27.848    -0.005     20.52
   S-2             1.240e-33   1.185e-33   -32.907   -32.926    -0.020     (0)  
   (H2S)2          0.000e+00   0.000e+00   -55.780   -55.780     0.000     45.78
S(6)          2.529e-05
   SO4-2           1.949e-05   1.862e-05    -4.710    -4.730    -0.020     16.68
   BaSO4           5.794e-06   5.794e-06    -5.237    -5.237     0.000     14.96
   HSO4-           5.069e-09   5.012e-09    -8.295    -8.300    -0.005     40.00

------------------------------Saturation indices-------------------------------

  Phase               SI** log IAP   log K(362 K, 493 atm)

  Barite           -0.00     -9.46   -9.46  BaSO4
  H2(g)           -10.83    -14.15   -3.32  H2
  H2O(g)           -0.04     -0.00    0.04  H2O
  H2S(g)          -25.85    -33.97   -8.12  H2S
  O2(g)           -44.19    -47.54   -3.34  O2
  Sulfur          -20.37    -17.01    3.37  S

**For a gas, SI = log10(fugacity). Fugacity = pressure * phi / 1 atm.
  For ideal gases, phi = 1.

Reaction step 6.

Using solution 1.	
Using pure phase assemblage 1.	
Using temperature 1.	

-------------------------------Phase assemblage--------------------------------

                                                      Moles in assemblage
Phase               SI  log IAP  log K(T, P)   Initial       Final       Delta

Barite           -0.00    -9.52     -9.52    1.000e+01   1.000e+01  -2.558e-05

-----------------------------Solution composition------------------------------

	Elements           Molality       Moles

	Ba                2.558e-05   2.558e-05
	S                 2.558e-05   2.558e-05

----------------------------Description of solution----------------------------

                                       pH  =   5.988      Charge balance
                                       pe  =  -0.722      Adjusted to redox equilibrium
      Specific Conductance (µS/cm, 105°C)  = 16
                          Density (g/cm³)  =   0.97671
                               Volume (L)  =   1.02385
                        Viscosity (mPa s)  =   0.27973
                        Activity of water  =   1.000
                 Ionic strength (mol/kgw)  =   7.412e-05
                       Mass of water (kg)  =   1.000e+00
                 Total alkalinity (eq/kg)  =  -2.286e-17
                         Temperature (°C)  = 105.36
                           Pressure (atm)  = 493.00
                  Electrical balance (eq)  =   3.237e-17
 Percent error, 100*(Cat-|An|)/(Cat+|An|)  =   0.00
                               Iterations  =  13
                                  Total H  = 1.110124e+02
                                  Total O  = 5.550632e+01

----------------------------Distribution of species----------------------------

                                               Log       Log       Log    mole V
   Species          Molality    Activity  Molality  Activity     Gamma   cm³/mol

   OH-             1.049e-06   1.037e-06    -5.979    -5.984    -0.005     -8.23
   H+              1.039e-06   1.027e-06    -5.983    -5.988    -0.005      0.00
   H2O             5.551e+01   1.000e+00     1.744    -0.000     0.000     18.45
Ba            2.558e-05
   Ba+2            1.827e-05   1.745e-05    -4.738    -4.758    -0.020     -8.25
   BaSO4           7.308e-06   7.308e-06    -5.136    -5.136     0.000     13.64
   BaOH+           6.843e-13   6.764e-13   -12.165   -12.170    -0.005     (0)  
H(0)          1.409e-14
   H2              7.047e-15   7.047e-15   -14.152   -14.152     0.000     28.37
O(0)          0.000e+00
   O2              0.000e+00   0.000e+00   -44.466   -44.466     0.000     32.64
S(-2)         2.595e-29
   H2S             1.847e-29   1.847e-29   -28.734   -28.734     0.000     40.04
   HS-             7.484e-30   7.398e-30   -29.126   -29.131    -0.005     19.90
   S-2             9.531e-35   9.103e-35   -34.021   -34.041    -0.020     (0)  
   (H2S)2          0.000e+00   0.000e+00   -58.045   -58.045     0.000     44.30
S(6)          2.558e-05
   SO4-2           1.826e-05   1.744e-05    -4.738    -4.758    -0.020     14.74
   BaSO4           7.308e-06   7.308e-06    -5.136    -5.136     0.000     13.64
   HSO4-           1.030e-08   1.018e-08    -7.987    -7.992    -0.005     39.60

------------------------------Saturation indices-------------------------------

  Phase               SI** log IAP   log K(378 K, 493 atm)

  Barite           -0.00     -9.52   -9.52  BaSO4
  H2(g)           -10.87    -14.15   -3.29  H2
  H2O(g)            0.20     -0.00   -0.20  H2O
  H2S(g)          -26.96    -35.12   -8.16  H2S
  O2(g)           -41.13    -44.47   -3.34  O2
  Sulfur          -21.33    -18.20    3.13  S

**For a gas, SI = log10(fugacity). Fugacity = pressure * phi / 1 atm.
  For ideal gases, phi = 1.

Reaction step 7.

Using solution 1.	
Using pure phase assemblage 1.	
Using temperature 1.	

-------------------------------Phase assemblage--------------------------------

                                                      Moles in assemblage
Phase               SI  log IAP  log K(T, P)   Initial       Final       Delta

Barite           -0.00    -9.60     -9.60    1.000e+01   1.000e+01  -2.509e-05

-----------------------------Solution composition------------------------------

	Elements           Molality       Moles

	Ba                2.509e-05   2.509e-05
	S                 2.509e-05   2.509e-05

----------------------------Description of solution----------------------------

                                       pH  =   5.877      Charge balance
                                       pe  =  -0.627      Adjusted to redox equilibrium
      Specific Conductance (µS/cm, 121°C)  = 16
                          Density (g/cm³)  =   0.96529
                               Volume (L)  =   1.03597
                        Viscosity (mPa s)  =   0.24197
                        Activity of water  =   1.000
                 Ionic strength (mol/kgw)  =   6.810e-05
                       Mass of water (kg)  =   1.000e+00
                 Total alkalinity (eq/kg)  =  -1.769e-17
                         Temperature (°C)  = 121.43
                           Pressure (atm)  = 493.00
                  Electrical balance (eq)  =   2.901e-17
 Percent error, 100*(Cat-|An|)/(Cat+|An|)  =   0.00
                               Iterations  =  13
                                  Total H  = 1.110124e+02
                                  Total O  = 5.550632e+01

----------------------------Distribution of species----------------------------

                                               Log       Log       Log    mole V
   Species          Molality    Activity  Molality  Activity     Gamma   cm³/mol

   OH-             1.363e-06   1.348e-06    -5.865    -5.870    -0.005     -9.71
   H+              1.343e-06   1.328e-06    -5.872    -5.877    -0.005      0.00
   H2O             5.551e+01   1.000e+00     1.744    -0.000     0.000     18.66
Ba            2.509e-05
   Ba+2            1.669e-05   1.594e-05    -4.777    -4.797    -0.020     -8.38
   BaSO4           8.396e-06   8.397e-06    -5.076    -5.076     0.000     12.46
   BaOH+           4.810e-13   4.755e-13   -12.318   -12.323    -0.005     (0)  
H(0)          1.409e-14
   H2              7.047e-15   7.047e-15   -14.152   -14.152     0.000     28.36
O(0)          0.000e+00
   O2              0.000e+00   0.000e+00   -41.780   -41.780     0.000     33.09
S(-2)         2.047e-30
   H2S             1.579e-30   1.579e-30   -29.802   -29.802     0.000     41.08
   HS-             4.682e-31   4.629e-31   -30.330   -30.335    -0.005     19.06
   S-2             8.656e-36   8.268e-36   -35.063   -35.083    -0.020     (0)  
   (H2S)2          0.000e+00   0.000e+00   -60.151   -60.151     0.000     42.49
S(6)          2.509e-05
   SO4-2           1.667e-05   1.593e-05    -4.778    -4.798    -0.020     12.18
   BaSO4           8.396e-06   8.397e-06    -5.076    -5.076     0.000     12.46
   HSO4-           1.967e-08   1.944e-08    -7.706    -7.711    -0.005     39.00

------------------------------Saturation indices-------------------------------

  Phase               SI** log IAP   log K(394 K, 493 atm)

  Barite           -0.00     -9.60   -9.60  BaSO4
  H2(g)           -10.91    -14.15   -3.24  H2
  H2O(g)            0.43     -0.00   -0.43  H2O
  H2S(g)          -28.00    -36.21   -8.21  H2S
  O2(g)           -38.46    -41.78   -3.32  O2
  Sulfur          -22.21    -19.30    2.91  S

**For a gas, SI = log10(fugacity). Fugacity = pressure * phi / 1 atm.
  For ideal gases, phi = 1.

Reaction step 8.

Using solution 1.	
Using pure phase assemblage 1.	
Using temperature 1.	

-------------------------------Phase assemblage--------------------------------

                                                      Moles in assemblage
Phase               SI  log IAP  log K(T, P)   Initial       Final       Delta

Barite           -0.00    -9.69     -9.69    1.000e+01   1.000e+01  -2.380e-05

-----------------------------Solution composition------------------------------

	Elements           Molality       Moles

	Ba                2.380e-05   2.380e-05
	S                 2.380e-05   2.380e-05

----------------------------Description of solution----------------------------

                                       pH  =   5.783      Charge balance
                                       pe  =  -0.548      Adjusted to redox equilibrium
      Specific Conductance (µS/cm, 138°C)  = 17
                          Density (g/cm³)  =   0.95295
                               Volume (L)  =   1.04937
                        Viscosity (mPa s)  =   0.21295
                        Activity of water  =   1.000
                 Ionic strength (mol/kgw)  =   6.129e-05
                       Mass of water (kg)  =   1.000e+00
                 Total alkalinity (eq/kg)  =  -2.487e-17
                         Temperature (°C)  = 137.50
                           Pressure (atm)  = 493.00
                  Electrical balance (eq)  =   3.332e-17
 Percent error, 100*(Cat-|An|)/(Cat+|An|)  =   0.00
                               Iterations  =  13
                                  Total H  = 1.110124e+02
                                  Total O  = 5.550631e+01

----------------------------Distribution of species----------------------------

                                               Log       Log       Log    mole V
   Species          Molality    Activity  Molality  Activity     Gamma   cm³/mol

   OH-             1.703e-06   1.684e-06    -5.769    -5.774    -0.005    -11.45
   H+              1.668e-06   1.649e-06    -5.778    -5.783    -0.005      0.00
   H2O             5.551e+01   1.000e+00     1.744    -0.000     0.000     18.91
Ba            2.380e-05
   Ba+2            1.491e-05   1.425e-05    -4.826    -4.846    -0.020     -8.60
   BaSO4           8.883e-06   8.883e-06    -5.051    -5.051     0.000     11.35
   BaOH+           3.442e-13   3.403e-13   -12.463   -12.468    -0.005     (0)  
H(0)          1.409e-14
   H2              7.047e-15   7.047e-15   -14.152   -14.152     0.000     28.36
O(0)          7.107e-40
   O2              3.554e-40   3.554e-40   -39.449   -39.449     0.000     33.57
S(-2)         1.957e-31
   H2S             1.614e-31   1.614e-31   -30.792   -30.792     0.000     42.09
   HS-             3.432e-32   3.393e-32   -31.464   -31.469    -0.005     17.97
   S-2             9.096e-37   8.692e-37   -36.041   -36.061    -0.020     (0)  
   (H2S)2          0.000e+00   0.000e+00   -62.120   -62.120     0.000     40.30
S(6)          2.380e-05
   SO4-2           1.488e-05   1.422e-05    -4.827    -4.847    -0.020      8.89
   BaSO4           8.883e-06   8.883e-06    -5.051    -5.051     0.000     11.35
   HSO4-           3.544e-08   3.504e-08    -7.450    -7.455    -0.005     38.18

------------------------------Saturation indices-------------------------------

  Phase               SI** log IAP   log K(410 K, 493 atm)

  Barite           -0.00     -9.69   -9.69  BaSO4
  H2(g)           -10.96    -14.15   -3.20  H2
  H2O(g)            0.63     -0.00   -0.63  H2O
  H2S(g)          -28.97    -37.25   -8.28  H2S
  O2(g)           -36.17    -39.45   -3.28  O2
  Sulfur          -23.03    -20.32    2.71  S

**For a gas, SI = log10(fugacity). Fugacity = pressure * phi / 1 atm.
  For ideal gases, phi = 1.

Reaction step 9.

Using solution 1.	
Using pure phase assemblage 1.	
Using temperature 1.	

-------------------------------Phase assemblage--------------------------------

                                                      Moles in assemblage
Phase               SI  log IAP  log K(T, P)   Initial       Final       Delta

Barite           -0.00    -9.81     -9.81    1.000e+01   1.000e+01  -2.180e-05

-----------------------------Solution composition------------------------------

	Elements           Molality       Moles

	Ba                2.180e-05   2.180e-05
	S                 2.180e-05   2.180e-05

----------------------------Description of solution----------------------------

                                       pH  =   5.705      Charge balance
                                       pe  =  -0.485      Adjusted to redox equilibrium
      Specific Conductance (µS/cm, 154°C)  = 16
                          Density (g/cm³)  =   0.93974
                               Volume (L)  =   1.06413
                        Viscosity (mPa s)  =   0.19016
                        Activity of water  =   1.000
                 Ionic strength (mol/kgw)  =   5.422e-05
                       Mass of water (kg)  =   1.000e+00
                 Total alkalinity (eq/kg)  =   9.259e-16
                         Temperature (°C)  = 153.57
                           Pressure (atm)  = 493.00
                  Electrical balance (eq)  =  -1.237e-15
 Percent error, 100*(Cat-|An|)/(Cat+|An|)  =  -0.00
                               Iterations  =  12
                                  Total H  = 1.110124e+02
                                  Total O  = 5.550630e+01

----------------------------Distribution of species----------------------------

                                               Log       Log       Log    mole V
   Species          Molality    Activity  Molality  Activity     Gamma   cm³/mol

   OH-             2.055e-06   2.032e-06    -5.687    -5.692    -0.005    -13.53
   H+              1.995e-06   1.973e-06    -5.700    -5.705    -0.005      0.00
   H2O             5.551e+01   1.000e+00     1.744    -0.000     0.000     19.17
Ba            2.180e-05
   Ba+2            1.307e-05   1.250e-05    -4.884    -4.903    -0.019     -8.93
   BaSO4           8.732e-06   8.732e-06    -5.059    -5.059     0.000     10.26
   BaOH+           2.507e-13   2.479e-13   -12.601   -12.606    -0.005     (0)  
H(0)          1.409e-14
   H2              7.047e-15   7.047e-15   -14.152   -14.152     0.000     28.36
O(0)          7.180e-38
   O2              3.590e-38   3.590e-38   -37.445   -37.445     0.000     34.11
S(-2)         2.216e-32
   H2S             1.927e-32   1.927e-32   -31.715   -31.715     0.000     43.14
   HS-             2.890e-33   2.858e-33   -32.539   -32.544    -0.005     16.59
   S-2             1.086e-37   1.039e-37   -36.964   -36.984    -0.019     (0)  
   (H2S)2          0.000e+00   0.000e+00   -63.968   -63.968     0.000     37.61
S(6)          2.180e-05
   SO4-2           1.301e-05   1.244e-05    -4.886    -4.905    -0.019      4.75
   BaSO4           8.732e-06   8.732e-06    -5.059    -5.059     0.000     10.26
   HSO4-           6.048e-08   5.981e-08    -7.218    -7.223    -0.005     37.11

------------------------------Saturation indices-------------------------------

  Phase               SI** log IAP   log K(426 K, 493 atm)

  Barite           -0.00     -9.81   -9.81  BaSO4
  H2(g)           -11.01    -14.15   -3.14  H2
  H2O(g)            0.82     -0.00   -0.82  H2O
  H2S(g)          -29.89    -38.25   -8.36  H2S
  O2(g)           -34.21    -37.44   -3.24  O2
  Sulfur          -23.80    -21.27    2.52  S

**For a gas, SI = log10(fugacity). Fugacity = pressure * phi / 1 atm.
  For ideal gases, phi = 1.

Reaction step 10.

Using solution 1.	
Using pure phase assemblage 1.	
Using temperature 1.	

-------------------------------Phase assemblage--------------------------------

                                                      Moles in assemblage
Phase               SI  log IAP  log K(T, P)   Initial       Final       Delta

Barite           -0.00    -9.94     -9.94    1.000e+01   1.000e+01  -1.932e-05

-----------------------------Solution composition------------------------------

	Elements           Molality       Moles

	Ba                1.932e-05   1.932e-05
	S                 1.932e-05   1.932e-05

----------------------------Description of solution----------------------------

                                       pH  =   5.642      Charge balance
                                       pe  =  -0.435      Adjusted to redox equilibrium
      Specific Conductance (µS/cm, 170°C)  = 15
                          Density (g/cm³)  =   0.92566
                               Volume (L)  =   1.08032
                        Viscosity (mPa s)  =   0.17189
                        Activity of water  =   1.000
                 Ionic strength (mol/kgw)  =   4.734e-05
                       Mass of water (kg)  =   1.000e+00
                 Total alkalinity (eq/kg)  =   1.899e-15
                         Temperature (°C)  = 169.64
                           Pressure (atm)  = 493.00
                  Electrical balance (eq)  =  -1.375e-14
 Percent error, 100*(Cat-|An|)/(Cat+|An|)  =  -0.00
                               Iterations  =  12
                                  Total H  = 1.110124e+02
                                  Total O  = 5.550629e+01

----------------------------Distribution of species----------------------------

                                               Log       Log       Log    mole V
   Species          Molality    Activity  Molality  Activity     Gamma   cm³/mol

   OH-             2.405e-06   2.379e-06    -5.619    -5.624    -0.005    -16.04
   H+              2.307e-06   2.282e-06    -5.637    -5.642    -0.005      0.00
   H2O             5.551e+01   1.000e+00     1.744    -0.000     0.000     19.46
Ba            1.932e-05
   Ba+2            1.128e-05   1.080e-05    -4.948    -4.967    -0.019     -9.37
   BaSO4           8.039e-06   8.039e-06    -5.095    -5.095     0.000      9.13
   BaOH+           1.859e-13   1.838e-13   -12.731   -12.736    -0.005     (0)  
H(0)          1.409e-14
   H2              7.047e-15   7.047e-15   -14.152   -14.152     0.000     28.36
O(0)          3.620e-36
   O2              1.810e-36   1.810e-36   -35.742   -35.742     0.000     34.71
S(-2)         2.904e-33
   H2S             2.629e-33   2.629e-33   -32.580   -32.580     0.000     44.26
   HS-             2.747e-34   2.717e-34   -33.561   -33.566    -0.005     14.85
   S-2             1.450e-38   1.388e-38   -37.839   -37.858    -0.019     (0)  
   (H2S)2          0.000e+00   0.000e+00   -65.711   -65.711     0.000     34.32
S(6)          1.932e-05
   SO4-2           1.118e-05   1.071e-05    -4.951    -4.970    -0.019     -0.45
   BaSO4           8.039e-06   8.039e-06    -5.095    -5.095     0.000      9.13
   HSO4-           9.798e-08   9.692e-08    -7.009    -7.014    -0.005     35.74

------------------------------Saturation indices-------------------------------

  Phase               SI** log IAP   log K(442 K, 493 atm)

  Barite           -0.00     -9.94   -9.94  BaSO4
  H2(g)           -11.07    -14.15   -3.08  H2
  H2O(g)            0.98     -0.00   -0.98  H2O
  H2S(g)          -30.76    -39.21   -8.44  H2S
  O2(g)           -32.56    -35.74   -3.19  O2
  Sulfur          -24.51    -22.17    2.35  S

**For a gas, SI = log10(fugacity). Fugacity = pressure * phi / 1 atm.
  For ideal gases, phi = 1.

Reaction step 11.

Using solution 1.	
Using pure phase assemblage 1.	
Using temperature 1.	

-------------------------------Phase assemblage--------------------------------

                                                      Moles in assemblage
Phase               SI  log IAP  log K(T, P)   Initial       Final       Delta

Barite           -0.00   -10.08    -10.08    1.000e+01   1.000e+01  -1.660e-05

-----------------------------Solution composition------------------------------

	Elements           Molality       Moles

	Ba                1.660e-05   1.660e-05
	S                 1.660e-05   1.660e-05

----------------------------Description of solution----------------------------

                                       pH  =   5.592      Charge balance
                                       pe  =  -0.397      Adjusted to redox equilibrium
      Specific Conductance (µS/cm, 186°C)  = 14
                          Density (g/cm³)  =   0.91074
                               Volume (L)  =   1.09802
                        Viscosity (mPa s)  =   0.15701
                        Activity of water  =   1.000
                 Ionic strength (mol/kgw)  =   4.094e-05
                       Mass of water (kg)  =   1.000e+00
                 Total alkalinity (eq/kg)  =   8.286e-16
                         Temperature (°C)  = 185.71
                           Pressure (atm)  = 493.00
                  Electrical balance (eq)  =  -7.982e-16
 Percent error, 100*(Cat-|An|)/(Cat+|An|)  =  -0.00
                               Iterations  =  12
                                  Total H  = 1.110124e+02
                                  Total O  = 5.550628e+01

----------------------------Distribution of species----------------------------

                                               Log       Log       Log    mole V
   Species          Molality    Activity  Molality  Activity     Gamma   cm³/mol

   OH-             2.737e-06   2.708e-06    -5.563    -5.567    -0.005    -19.10
   H+              2.586e-06   2.559e-06    -5.587    -5.592    -0.005      0.00
   H2O             5.551e+01   1.000e+00     1.744    -0.000     0.000     19.78
Ba            1.660e-05
   Ba+2            9.626e-06   9.225e-06    -5.017    -5.035    -0.018     -9.94
   BaSO4           6.978e-06   6.978e-06    -5.156    -5.156     0.000      7.92
   BaOH+           1.404e-13   1.389e-13   -12.853   -12.857    -0.005     (0)  
H(0)          1.411e-14
   H2              7.055e-15   7.055e-15   -14.152   -14.151     0.000     28.35
O(0)          9.555e-35
   O2              4.777e-35   4.777e-35   -34.321   -34.321     0.000     35.42
S(-2)         4.332e-34
   H2S             4.040e-34   4.040e-34   -33.394   -33.394     0.000     45.51
   HS-             2.918e-35   2.887e-35   -34.535   -34.540    -0.005     12.66
   S-2             2.143e-39   2.054e-39   -38.669   -38.687    -0.018     (0)  
   (H2S)2          0.000e+00   0.000e+00   -67.360   -67.360     0.000     30.24
S(6)          1.660e-05
   SO4-2           9.475e-06   9.081e-06    -5.023    -5.042    -0.018     -6.95
   BaSO4           6.978e-06   6.978e-06    -5.156    -5.156     0.000      7.92
   HSO4-           1.510e-07   1.494e-07    -6.821    -6.826    -0.005     34.00

------------------------------Saturation indices-------------------------------

  Phase               SI** log IAP   log K(458 K, 493 atm)

  Barite           -0.00    -10.08  -10.08  BaSO4
  H2(g)           -11.13    -14.15   -3.02  H2
  H2O(g)            1.14     -0.00   -1.14  H2O
  H2S(g)          -31.59    -40.13   -8.54  H2S
  O2(g)           -31.19    -34.32   -3.13  O2
  Sulfur          -25.19    -23.00    2.18  S

**For a gas, SI = log10(fugacity). Fugacity = pressure * phi / 1 atm.
  For ideal gases, phi = 1.

Reaction step 12.

Using solution 1.	
Using pure phase assemblage 1.	
Using temperature 1.	

-------------------------------Phase assemblage--------------------------------

                                                      Moles in assemblage
Phase               SI  log IAP  log K(T, P)   Initial       Final       Delta

Barite           -0.00   -10.23    -10.23    1.000e+01   1.000e+01  -1.390e-05

-----------------------------Solution composition------------------------------

	Elements           Molality       Moles

	Ba                1.390e-05   1.390e-05
	S                 1.390e-05   1.390e-05

----------------------------Description of solution----------------------------

                                       pH  =   5.555      Charge balance
                                       pe  =   4.279      Adjusted to redox equilibrium
      Specific Conductance (µS/cm, 202°C)  = 13
                          Density (g/cm³)  =   0.89498
                               Volume (L)  =   1.11734
                        Viscosity (mPa s)  =   0.14470 (solute contributions limited to 200 °C)
                        Activity of water  =   1.000
                 Ionic strength (mol/kgw)  =   3.521e-05
                       Mass of water (kg)  =   1.000e+00
                 Total alkalinity (eq/kg)  =   2.682e-15
                         Temperature (°C)  = 201.79
                           Pressure (atm)  = 493.00
                  Electrical balance (eq)  =  -3.795e-16
 Percent error, 100*(Cat-|An|)/(Cat+|An|)  =  -0.00
                               Iterations  =   8
                                  Total H  = 1.110124e+02
                                  Total O  = 5.550627e+01

----------------------------Distribution of species----------------------------

                                               Log       Log       Log    mole V
   Species          Molality    Activity  Molality  Activity     Gamma   cm³/mol

   OH-             3.037e-06   3.006e-06    -5.518    -5.522    -0.005    -22.89
   H+              2.815e-06   2.787e-06    -5.550    -5.555    -0.004      0.00
   H2O             5.551e+01   1.000e+00     1.744    -0.000     0.000     20.13
Ba            1.390e-05
   Ba+2            8.153e-06   7.822e-06    -5.089    -5.107    -0.018    -10.69
   BaSO4           5.746e-06   5.746e-06    -5.241    -5.241     0.000      6.57
   BaOH+           1.083e-13   1.072e-13   -12.965   -12.970    -0.004     (0)  
H(0)          7.051e-24
   H2              3.526e-24   3.526e-24   -23.453   -23.453     0.000     28.35
O(0)          5.556e-15
   O2              2.778e-15   2.778e-15   -14.556   -14.556     0.000     36.28
S(-2)         0.000e+00
   H2S             0.000e+00   0.000e+00   -71.372   -71.372     0.000     46.94
   HS-             0.000e+00   0.000e+00   -72.676   -72.680    -0.005      9.90
   S-2             0.000e+00   0.000e+00   -76.670   -76.688    -0.018     (0)  
   (H2S)2          0.000e+00   0.000e+00  -143.346  -143.346     0.000     25.17
S(6)          1.390e-05
   SO4-2           7.932e-06   7.610e-06    -5.101    -5.119    -0.018    -15.14
   BaSO4           5.746e-06   5.746e-06    -5.241    -5.241     0.000      6.57
   HSO4-           2.215e-07   2.192e-07    -6.655    -6.659    -0.005     31.79

------------------------------Saturation indices-------------------------------

  Phase               SI** log IAP   log K(474 K, 493 atm)

  Barite           -0.00    -10.23  -10.23  BaSO4
  H2(g)           -20.50    -23.45   -2.96  H2
  H2O(g)            1.28     -0.00   -1.28  H2O
  H2S(g)          -69.59    -78.24   -8.64  H2S
  O2(g)           -11.50    -14.56   -3.06  O2
  Sulfur          -53.74    -51.70    2.03  S

**For a gas, SI = log10(fugacity). Fugacity = pressure * phi / 1 atm.
  For ideal gases, phi = 1.

Reaction step 13.

Using solution 1.	
Using pure phase assemblage 1.	
Using temperature 1.	

-------------------------------Phase assemblage--------------------------------

                                                      Moles in assemblage
Phase               SI  log IAP  log K(T, P)   Initial       Final       Delta

Barite           -0.00   -10.38    -10.38    1.000e+01   1.000e+01  -1.140e-05

-----------------------------Solution composition------------------------------

	Elements           Molality       Moles

	Ba                1.140e-05   1.140e-05
	S                 1.140e-05   1.140e-05

----------------------------Description of solution----------------------------

                                       pH  =   5.529      Charge balance
                                       pe  =   4.356      Adjusted to redox equilibrium
      Specific Conductance (µS/cm, 218°C)  = 12
                          Density (g/cm³)  =   0.87839
                               Volume (L)  =   1.13844
                        Viscosity (mPa s)  =   0.13437 (solute contributions limited to 200 °C)
                        Activity of water  =   1.000
                 Ionic strength (mol/kgw)  =   3.024e-05
                       Mass of water (kg)  =   1.000e+00
                 Total alkalinity (eq/kg)  =   8.943e-15
                         Temperature (°C)  = 217.86
                           Pressure (atm)  = 493.00
                  Electrical balance (eq)  =  -2.985e-15
 Percent error, 100*(Cat-|An|)/(Cat+|An|)  =  -0.00
                               Iterations  =   8
                                  Total H  = 1.110124e+02
                                  Total O  = 5.550626e+01

----------------------------Distribution of species----------------------------

                                               Log       Log       Log    mole V
   Species          Molality    Activity  Molality  Activity     Gamma   cm³/mol

   OH-             3.294e-06   3.261e-06    -5.482    -5.487    -0.004    -27.61
   H+              2.985e-06   2.955e-06    -5.525    -5.529    -0.004      0.00
   H2O             5.551e+01   1.000e+00     1.744    -0.000     0.000     20.51
Ba            1.140e-05
   Ba+2            6.891e-06   6.618e-06    -5.162    -5.179    -0.018    -11.66
   BaSO4           4.512e-06   4.512e-06    -5.346    -5.346     0.000      5.01
   BaOH+           8.541e-14   8.456e-14   -13.068   -13.073    -0.004     (0)  
H(0)          5.283e-24
   H2              2.641e-24   2.641e-24   -23.578   -23.578     0.000     28.35
O(0)          8.212e-14
   O2              4.106e-14   4.106e-14   -13.387   -13.387     0.000     37.32
S(-2)         0.000e+00
   H2S             0.000e+00   0.000e+00   -72.613   -72.613     0.000     48.64
   HS-             0.000e+00   0.000e+00   -74.078   -74.083    -0.004      6.41
   S-2             0.000e+00   0.000e+00   -77.936   -77.954    -0.017     (0)  
   (H2S)2          0.000e+00   0.000e+00  -145.858  -145.858     0.000     18.80
S(6)          1.140e-05
   SO4-2           6.581e-06   6.321e-06    -5.182    -5.199    -0.017    -25.48
   BaSO4           4.512e-06   4.512e-06    -5.346    -5.346     0.000      5.01
   HSO4-           3.097e-07   3.066e-07    -6.509    -6.513    -0.004     28.97

------------------------------Saturation indices-------------------------------

  Phase               SI** log IAP   log K(491 K, 493 atm)

  Barite           -0.00    -10.38  -10.38  BaSO4
  H2(g)           -20.69    -23.58   -2.89  H2
  H2O(g)            1.41     -0.00   -1.41  H2O
  H2S(g)          -70.86    -79.61   -8.75  H2S
  O2(g)           -10.40    -13.39   -2.99  O2
  Sulfur          -54.73    -52.84    1.89  S

**For a gas, SI = log10(fugacity). Fugacity = pressure * phi / 1 atm.
  For ideal gases, phi = 1.

Reaction step 14.

Using solution 1.	
Using pure phase assemblage 1.	
Using temperature 1.	

-------------------------------Phase assemblage--------------------------------

                                                      Moles in assemblage
Phase               SI  log IAP  log K(T, P)   Initial       Final       Delta

Barite            0.00   -10.53    -10.53    1.000e+01   1.000e+01  -9.242e-06

-----------------------------Solution composition------------------------------

	Elements           Molality       Moles

	Ba                9.242e-06   9.242e-06
	S                 9.242e-06   9.242e-06

----------------------------Description of solution----------------------------

                                       pH  =   5.514      Charge balance
                                       pe  =   4.270      Adjusted to redox equilibrium
      Specific Conductance (µS/cm, 234°C)  = 11
                          Density (g/cm³)  =   0.86093
                               Volume (L)  =   1.16154
                        Viscosity (mPa s)  =   0.12552 (solute contributions limited to 200 °C)
                        Activity of water  =   1.000
                 Ionic strength (mol/kgw)  =   2.606e-05
                       Mass of water (kg)  =   1.000e+00
                 Total alkalinity (eq/kg)  =  -9.196e-17
                         Temperature (°C)  = 233.93
                           Pressure (atm)  = 493.00
                  Electrical balance (eq)  =   7.658e-17
 Percent error, 100*(Cat-|An|)/(Cat+|An|)  =   0.00
                               Iterations  =   9
                                  Total H  = 1.110124e+02
                                  Total O  = 5.550625e+01

----------------------------Distribution of species----------------------------

                                               Log       Log       Log    mole V
   Species          Molality    Activity  Molality  Activity     Gamma   cm³/mol

   OH-             3.502e-06   3.467e-06    -5.456    -5.460    -0.004    -33.60
   H+              3.089e-06   3.059e-06    -5.510    -5.514    -0.004      0.00
   H2O             5.551e+01   1.000e+00     1.744    -0.000     0.000     20.93
Ba            9.242e-06
   Ba+2            5.846e-06   5.620e-06    -5.233    -5.250    -0.017    -12.91
   BaSO4           3.396e-06   3.396e-06    -5.469    -5.469     0.000      3.16
   BaOH+           6.913e-14   6.845e-14   -13.160   -13.165    -0.004     (0)  
H(0)          8.024e-24
   H2              4.012e-24   4.012e-24   -23.397   -23.397     0.000     28.35
O(0)          1.749e-13
   O2              8.744e-14   8.744e-14   -13.058   -13.058     0.000     38.62
S(-2)         0.000e+00
   H2S             0.000e+00   0.000e+00   -72.597   -72.597     0.000     50.71
   HS-             0.000e+00   0.000e+00   -74.223   -74.227    -0.004      1.95
   S-2             0.000e+00   0.000e+00   -77.949   -77.966    -0.017     (0)  
   (H2S)2          0.000e+00   0.000e+00  -145.857  -145.857     0.000     10.70
S(6)          9.242e-06
   SO4-2           5.432e-06   5.223e-06    -5.265    -5.282    -0.017    -38.69
   BaSO4           3.396e-06   3.396e-06    -5.469    -5.469     0.000      3.16
   HSO4-           4.131e-07   4.090e-07    -6.384    -6.388    -0.004     25.37

------------------------------Saturation indices-------------------------------

  Phase               SI** log IAP   log K(507 K, 493 atm)

  Barite            0.00    -10.53  -10.53  BaSO4
  H2(g)           -20.58    -23.40   -2.82  H2
  H2O(g)            1.52     -0.00   -1.52  H2O
  H2S(g)          -70.88    -79.74   -8.86  H2S
  O2(g)           -10.14    -13.06   -2.91  O2
  Sulfur          -54.78    -53.03    1.75  S

**For a gas, SI = log10(fugacity). Fugacity = pressure * phi / 1 atm.
  For ideal gases, phi = 1.

Reaction step 15.

Using solution 1.	
Using pure phase assemblage 1.	
Using temperature 1.	

-------------------------------Phase assemblage--------------------------------

                                                      Moles in assemblage
Phase               SI  log IAP  log K(T, P)   Initial       Final       Delta

Barite           -0.00   -10.68    -10.68    1.000e+01   1.000e+01  -7.474e-06

-----------------------------Solution composition------------------------------

	Elements           Molality       Moles

	Ba                7.474e-06   7.474e-06
	S                 7.474e-06   7.474e-06

----------------------------Description of solution----------------------------

                                       pH  =   5.509      Charge balance
                                       pe  =   4.286      Adjusted to redox equilibrium
      Specific Conductance (µS/cm, 250°C)  = 10
                          Density (g/cm³)  =   0.84250
                               Volume (L)  =   1.18695
                        Viscosity (mPa s)  =   0.11787 (solute contributions limited to 200 °C)
                        Activity of water  =   1.000
                 Ionic strength (mol/kgw)  =   2.265e-05
                       Mass of water (kg)  =   1.000e+00
                 Total alkalinity (eq/kg)  =  -1.608e-17
                         Temperature (°C)  = 250.00
                           Pressure (atm)  = 493.00
                  Electrical balance (eq)  =   2.306e-17
 Percent error, 100*(Cat-|An|)/(Cat+|An|)  =   0.00
                               Iterations  =   9
                                  Total H  = 1.110124e+02
                                  Total O  = 5.550625e+01

----------------------------Distribution of species----------------------------

                                               Log       Log       Log    mole V
   Species          Molality    Activity  Molality  Activity     Gamma   cm³/mol

   OH-             3.656e-06   3.621e-06    -5.437    -5.441    -0.004    -41.28
   H+              3.130e-06   3.100e-06    -5.504    -5.509    -0.004      0.00
   H2O             5.551e+01   1.000e+00     1.744    -0.000     0.000     21.38
Ba            7.474e-06
   Ba+2            5.012e-06   4.822e-06    -5.300    -5.317    -0.017    -14.54
   BaSO4           2.462e-06   2.462e-06    -5.609    -5.609     0.000      0.89
   BaOH+           5.756e-14   5.701e-14   -13.240   -13.244    -0.004     (0)  
H(0)          7.361e-24
   H2              3.680e-24   3.680e-24   -23.434   -23.434     0.000     28.35
O(0)          6.240e-13
   O2              3.120e-13   3.120e-13   -12.506   -12.506     0.000     40.26
S(-2)         0.000e+00
   H2S             0.000e+00   0.000e+00   -73.433   -73.433     0.000     53.28
   HS-             0.000e+00   0.000e+00   -75.216   -75.221    -0.004     -3.82
   S-2             0.000e+00   0.000e+00   -78.818   -78.835    -0.017     (0)  
   (H2S)2          0.000e+00   0.000e+00  -147.556  -147.556     0.000      0.27
S(6)          7.474e-06
   SO4-2           4.486e-06   4.316e-06    -5.348    -5.365    -0.017    -55.75
   BaSO4           2.462e-06   2.462e-06    -5.609    -5.609     0.000      0.89
   HSO4-           5.261e-07   5.211e-07    -6.279    -6.283    -0.004     20.69

------------------------------Saturation indices-------------------------------

  Phase               SI** log IAP   log K(523 K, 493 atm)

  Barite           -0.00    -10.68  -10.68  BaSO4
  H2(g)           -20.69    -23.43   -2.75  H2
  H2O(g)            1.63     -0.00   -1.63  H2O
  H2S(g)          -71.75    -80.73   -8.98  H2S
  O2(g)            -9.67    -12.51   -2.84  O2
  Sulfur          -55.47    -53.84    1.62  S

**For a gas, SI = log10(fugacity). Fugacity = pressure * phi / 1 atm.
  For ideal gases, phi = 1.

------------------
End of simulation.
------------------

------------------------------------
Reading input data for simulation 2.
------------------------------------

