WARNING: Database file from DATABASE keyword is used; command line argument ignored.
   Input file: basic_test
  Output file: basic_test.out
Database file: ../database/phreeqc.dat

------------------
Reading data base.
------------------

	SOLUTION_MASTER_SPECIES
	SOLUTION_SPECIES
	PHASES
	EXCHANGE_MASTER_SPECIES
	EXCHANGE_SPECIES
	SURFACE_MASTER_SPECIES
	SURFACE_SPECIES
	RATES
	END
------------------------------------
Reading input data for simulation 1.
------------------------------------

	DATABASE ../database/phreeqc.dat
	SELECTED_OUTPUT 101
	    file                 basic_test_101.sel
	USER_PUNCH 101
	    headings Mu SC
	    start
	10 PUNCH STR_F$(MU, 20, 12)
	20 PUNCH STR_F$(SC, 20, 10)
	    end
	TITLE Testing basic functions
	SOLUTION 10 Test solution
	    temp      25
	    pH        7
	    pe        4
	    redox     pe
	    units     mmol/kgw
	    density   1
	    water    1 # kg
	    Na		1000
	    Cl		1000
	    C		1
	    P		1
	    S(6)        1
	    Ca		1  charge
	END
-----
TITLE
-----

 Testing basic functions

-------------------------------------------
Beginning of initial solution calculations.
-------------------------------------------

Initial solution 10.	Test solution

-----------------------------Solution composition------------------------------

	Elements           Molality       Moles

	C                 1.000e-03   1.000e-03
	Ca                2.337e-03   2.337e-03  Charge balance
	Cl                1.000e+00   1.000e+00
	Na                1.000e+00   1.000e+00
	P                 1.000e-03   1.000e-03
	S(6)              1.000e-03   1.000e-03

----------------------------Description of solution----------------------------

                                       pH  =   7.000    
                                       pe  =   4.000    
      Specific Conductance (µS/cm,  25°C)  = 82957
                          Density (g/cm³)  =   1.03634
                               Volume (L)  =   1.02166
                        Viscosity (mPa s)  =   0.97425
                        Activity of water  =   0.966
                 Ionic strength (mol/kgw)  =   1.007e+00
                       Mass of water (kg)  =   1.000e+00
                 Total alkalinity (eq/kg)  =   1.674e-03
                       Total CO2 (mol/kg)  =   1.000e-03
                         Temperature (°C)  =  25.00
                  Electrical balance (eq)  =   2.313e-16
 Percent error, 100*(Cat-|An|)/(Cat+|An|)  =   0.00
                               Iterations  =   9
                                  Total H  = 1.110146e+02
                                  Total O  = 5.551712e+01

----------------------------Distribution of species----------------------------

                                               Log       Log       Log    mole V
   Species          Molality    Activity  Molality  Activity     Gamma   cm³/mol

   OH-             1.690e-07   9.777e-08    -6.772    -7.010    -0.238     -2.09
   H+              1.346e-07   1.000e-07    -6.871    -7.000    -0.129      0.00
   H2O             5.551e+01   9.659e-01     1.744    -0.015     0.000     18.07
C(-4)         0.000e+00
   CH4             0.000e+00   0.000e+00   -67.620   -67.520     0.101     35.46
C(4)          1.000e-03
   HCO3-           7.534e-04   4.931e-04    -3.123    -3.307    -0.184     27.30
   NaHCO3          1.414e-04   2.410e-04    -3.850    -3.618     0.232     28.00
   CO2             9.849e-05   1.148e-04    -4.007    -3.940     0.066     34.43
   CaHCO3+         5.313e-06   3.576e-06    -5.275    -5.447    -0.172      9.98
   CO3-2           1.260e-06   2.312e-07    -5.900    -6.636    -0.736      0.51
   CaCO3           1.751e-07   2.208e-07    -6.757    -6.656     0.101    -14.60
   (CO2)2          1.918e-10   2.418e-10    -9.717    -9.617     0.101     68.87
Ca            2.337e-03
   Ca+2            2.299e-03   5.685e-04    -2.638    -3.245    -0.607    -16.47
   CaHPO4          2.275e-05   2.869e-05    -4.643    -4.542     0.101     (0)  
   CaHCO3+         5.313e-06   3.576e-06    -5.275    -5.447    -0.172      9.98
   CaSO4           5.053e-06   6.372e-06    -5.296    -5.196     0.101      7.50
   CaH2PO4+        3.295e-06   2.157e-06    -5.482    -5.666    -0.184     (0)  
   CaPO4-          1.037e-06   6.788e-07    -5.984    -6.168    -0.184     (0)  
   CaCO3           1.751e-07   2.208e-07    -6.757    -6.656     0.101    -14.60
   CaOH+           1.151e-09   9.113e-10    -8.939    -9.040    -0.101     (0)  
   CaHSO4+         5.290e-12   4.188e-12   -11.277   -11.378    -0.101     (0)  
Cl            1.000e+00
   Cl-             1.000e+00   6.083e-01    -0.000    -0.216    -0.216     18.95
   HCl             7.812e-09   2.096e-08    -8.107    -7.679     0.429     (0)  
H(0)          1.123e-25
   H2              5.614e-26   7.079e-26   -25.251   -25.150     0.101     28.61
Na            1.000e+00
   Na+             9.991e-01   7.310e-01    -0.000    -0.136    -0.136     -0.30
   NaSO4-          5.848e-04   1.800e-04    -3.233    -3.745    -0.512     22.54
   NaHPO4-         2.005e-04   1.312e-04    -3.698    -3.882    -0.184    104.98
   NaHCO3          1.414e-04   2.410e-04    -3.850    -3.618     0.232     28.00
   NaOH            5.668e-18   7.147e-18   -17.247   -17.146     0.101     (0)  
O(0)          0.000e+00
   O2              0.000e+00   0.000e+00   -42.211   -42.110     0.101     30.40
P             1.000e-03
   HPO4-2          5.459e-04   9.205e-05    -3.263    -4.036    -0.773     10.38
   H2PO4-          2.265e-04   1.483e-04    -3.645    -3.829    -0.184     35.27
   NaHPO4-         2.005e-04   1.312e-04    -3.698    -3.882    -0.184    104.98
   CaHPO4          2.275e-05   2.869e-05    -4.643    -4.542     0.101     (0)  
   CaH2PO4+        3.295e-06   2.157e-06    -5.482    -5.666    -0.184     (0)  
   CaPO4-          1.037e-06   6.788e-07    -5.984    -6.168    -0.184     (0)  
   PO4-3           4.024e-08   4.150e-10    -7.395    -9.382    -1.987    -15.98
   H3PO4           1.731e-09   2.183e-09    -8.762    -8.661     0.101     47.41
S(6)          1.000e-03
   NaSO4-          5.848e-04   1.800e-04    -3.233    -3.745    -0.512     22.54
   SO4-2           4.101e-04   6.303e-05    -3.387    -4.200    -0.813     18.46
   CaSO4           5.053e-06   6.372e-06    -5.296    -5.196     0.101      7.50
   HSO4-           7.740e-10   6.128e-10    -9.111    -9.213    -0.101     41.11
   CaHSO4+         5.290e-12   4.188e-12   -11.277   -11.378    -0.101     (0)  

------------------------------Saturation indices-------------------------------

  Phase               SI** log IAP   log K(298 K,   1 atm)

  Anhydrite        -3.17     -7.45   -4.28  CaSO4
  Aragonite        -1.55     -9.88   -8.34  CaCO3
  Calcite          -1.40     -9.88   -8.48  CaCO3
  CH4(g)          -64.72    -67.52   -2.80  CH4
  CO2(g)           -2.47     -3.94   -1.47  CO2
  Gypsum           -2.89     -7.48   -4.58  CaSO4:2H2O
  H2(g)           -22.05    -25.15   -3.10  H2
  H2O(g)           -1.52     -0.02    1.50  H2O
  Halite           -1.92     -0.35    1.57  NaCl
  Hydroxyapatite    3.07     -0.35   -3.42  Ca5(PO4)3OH
  Mirabilite       -3.38     -4.62   -1.24  Na2SO4:10H2O
  O2(g)           -39.22    -42.11   -2.89  O2
  Thenardite       -4.17     -4.47   -0.30  Na2SO4

**For a gas, SI = log10(fugacity). Fugacity = pressure * phi / 1 atm.
  For ideal gases, phi = 1.

------------------
End of simulation.
------------------

------------------------------------
Reading input data for simulation 2.
------------------------------------

	SURFACE 1
	    sites DENSITY
	    Hfo_wOH    3         600       1
	    Hfo_sOH    0.06
	    donnan 1e-008
	END
------------------
End of simulation.
------------------

------------------------------------
Reading input data for simulation 3.
------------------------------------

	EQUILIBRIUM_PHASES  1
	   Calcite  0 .02 
	END
------------------
End of simulation.
------------------

------------------------------------
Reading input data for simulation 4.
------------------------------------

	SOLID_SOLUTION 1
	 FeZnCO3
	 comp1 Siderite 0.1
	 comp2 Smithsonite 0.1
	 gugg_nondimensional 4
	END
-------------------------------------
Description of Solid Solution FeZnCO3
-------------------------------------

	                              Temperature: 298.15 kelvin
	                       A0 (dimensionless): 4
	                       A1 (dimensionless): 0
	                              A0 (kJ/mol): 9.91611
	                              A1 (kJ/mol): 0

	    Critical mole-fraction of component 2: 0.5
	                     Critical temperature: 596.3 kelvin

(The critical temperature calculation assumes that the Guggenheim model
defined at 298.15 kelvin is valid at the critical temperature.)


	 Spinodal-gap mole fractions, component 2: 0.146447	0.853553
	   Miscibility-gap fractions, component 2: 0.021248	0.978752

			Eutectic Point Calculations

	     Aqueous activity ratio (comp2/comp1): 7.76247
	 Log aqueous activity ratio (comp2/comp1): 0.89
	 Aqueous activity fraction of component 2: 0.885877
	                    Log IAP (component 2): -10.0085
	                    Log IAP (component 1): -10.8985
	                               Log Sum Pi: -9.95592

Local minimum in the solidus curve coresponding to a maximum
in the minimum stoichiometric saturation curve.

	       Solid mole fraction of component 2: 0.756163
	                    Log IAP (component 2): -10.0181
	                    Log IAP (component 1): -10.5096
	                               Log Sum Pi: -9.89671
------------------
End of simulation.
------------------

------------------------------------
Reading input data for simulation 5.
------------------------------------

	KINETICS
	Organic_C
	    formula  C  1
	    m        .1
	    m0       .11
	    tol      1e-008
	    steps       86400000
	END
------------------
End of simulation.
------------------

------------------------------------
Reading input data for simulation 6.
------------------------------------

	GAS_PHASE 1
	    fixed_volume
	    pressure 1
	    volume 1
	    temperature 25
	    CO2(g)    0.003
	    N2(g)     0.79
	    O2(g)     0.2
	END
------------------
End of simulation.
------------------

------------------------------------
Reading input data for simulation 7.
------------------------------------

	EXCHANGE 1
	    X 0.001
	    equilibrate 10
	END
-------------------------------------------------------
Beginning of initial exchange-composition calculations.
-------------------------------------------------------

Exchange 1.	

X                1.000e-03 mol

	                               Equiv-    Equivalent      Log 
	Species             Moles      alents      Fraction     Gamma

	NaX               9.859e-04   9.859e-04   9.859e-01    -0.136
	CaX2              7.064e-06   1.413e-05   1.413e-02    -0.607

------------------
End of simulation.
------------------

------------------------------------
Reading input data for simulation 8.
------------------------------------

	REACTION
		O2   1
		0.0001 mol
	END
------------------
End of simulation.
------------------

------------------------------------
Reading input data for simulation 9.
------------------------------------

	USE solution 10
	USE surface 1
	USE equilibrium_phases 1
	USE kinetics 1
	USE solid_solution 1
	USE gas_phase 1
	USE reaction 1
	USE exchange 1
	USER_PRINT
	start
	10 PUT(111, 1)
	20 a$ = "   abc   def   "
	30 PRINT "ALK:                                                 ", ALK
	40 PRINT "CALC_VALUE:                                          ", CALC_VALUE("Acidity")
	50 PRINT "CELL_NO:                                             ", CELL_NO
	60 CHANGE_POR(.55, 1)
	70 CHANGE_SURF("Hfo", 0.5, "Sfo", 1e-8, 1)
	80 PRINT "CHARGE_BALANCE:                                      ", CHARGE_BALANCE
	90 PRINT "DESCRIPTION:                                         ", DESCRIPTION
	100 PRINT "DIST:                                                ", DIST
	110 PRINT "EDL(P,Hfo):                                          ", EDL("P", "Hfo")
	120 PRINT "EQUI(calcite):                                       ", EQUI("calcite")
	130 PRINT "EXISTS(1):                                           ", EXISTS(1)
	140 PRINT "GAMMA(H+):                                           ", GAMMA("H+")
	150 PRINT "GAS(CO2(g)):                                         ", GAS("CO2(g)")
	160 PRINT "GET(1):                                              ", GET(1)
	170 PRINT "GET_POR(CELL_NO):                                    ", GET_POR(CELL_NO)
	180 PRINT "KIN(Organic_C):                                      ", KIN("Organic_C")
	190 PRINT "LA(H+):                                              ", LA("H+")
	200 PRINT "LG(H+):                                              ", LG("H+")
	210 PRINT "LK_NAMED(name):                                      ", LK_NAMED("name")
	220 PRINT "LK_PHASE(Calcite):                                   ", LK_PHASE("Calcite")
	230 PRINT "LK_SPECIES(CaOH+):                                   ", LK_SPECIES("CaOH+")
	240 PRINT "LM(H+):                                              ", LM("H+")
	250 PRINT "LTRIM(a$):                                           ", LTRIM(a$)
	260 PRINT "M:                                                   ", M
	270 PRINT "M0:                                                  ", M0
	280 PRINT "MISC1(FeZnCO3):                                      ", MISC1("FeZnCO3")
	290 PRINT "MISC2(FeZnCO3):                                      ", MISC2("FEZnCO3")
	300 PRINT "MOL(H+):                                             ", MOL("H+")
	310 PRINT "MU:                                                  ", MU
	320 PRINT "OSMOTIC:                                             ", OSMOTIC
	330 PRINT "PAD(a$, 20):                                         ", PAD(a$, 20)
	340 PRINT "Print"
	350 PUT(x, i1)
	360 PRINT "RHO:                                                 ", RHO
	365 PRINT "RHO_0:                                               ", RHO_0
	370 PRINT "RTRIM(a$):                                           ", RTRIM(a$)
	380 PRINT "RXN:                                                 ", RXN
	390 PRINT "S_S(Siderite):                                       ", S_S("Siderite")
	400 PRINT "SC:                                                  ", SC
	410 PRINT "SI(Siderite):                                        ", SI("Siderite")
	420 PRINT "SIM_NO:                                              ", SIM_NO
	430 PRINT "SIM_TIME:                                            ", SIM_TIME
	440 PRINT "SR(Smithsonite):                                     ", SR("Smithsonite")
	450 PRINT "STEP_NO:                                             ", STEP_NO
	460 PRINT "SUM_GAS(CO2*, O):                                    ", SUM_GAS("CO2*", "O")
	470 PRINT "SUM_S_S(FeZnCO3, Fe):                                ", SUM_s_s("FeZnCO3", "Fe")
	480 PRINT "SUM_SPECIES(Ca*, Ca):                                ", SUM_SPECIES("Ca*", "Ca")
	490 PRINT "SURF(Fe, Hfo):                                       ", SURF("Fe", "Hfo")
	500 PRINT "SYS(aq, count, names$, types$, values):              ", SYS("aq", count, names$, types$, values)
	510 PRINT "                                                     ", PAD(names$(1), 12), values(1)
	520 PRINT "SYS(H, count_species, names$, types$, moles):        ", SYS("H", count_species, names$, types$, moles)
	530 PRINT "                                                     ", PAD(names$(1), 12), values(1)
	540 PRINT "SYS(elements, count, names$, types$, values):        ", SYS("elements", count, names$, types$, values)
	550 PRINT "                                                     ", PAD(names$(3), 12), values(1)
	560 PRINT "SYS(ex, count, names$, types$, values):              ", SYS("ex", count, names$, types$, values)
	570 PRINT "                                                     ", PAD(names$(1), 12), values(1)
	580 PRINT "SYS(gas, count, names$, types$, values):             ", SYS("gas", count, names$, types$, values)
	590 PRINT "                                                     ", PAD(names$(1), 12), values(1)
	600 PRINT "SYS(phases, count, names$, types$, values):          ", SYS("phases", count, names$, types$, values)
	610 PRINT "                                                     ", PAD(names$(1), 12), values(1)
	620 PRINT "SYS(s_s, count, names$, types$, values):             ", SYS("s_s", count, names$, types$, values)
	630 PRINT "                                                     ", PAD(names$(1), 12), values(1)
	640 PRINT "SYS(surf, count, names$, types$, values):            ", SYS("surf", count, names$, types$, values)
	650 PRINT "                                                     ", PAD(names$(1), 12), values(1)
	660 PRINT "TC:                                                  ", TC
	670 PRINT "TIME:                                                ", TIME
	673 T$ = TITLE
	674 PRINT "TITLE:                                               ", T$
	680 PRINT "TK:                                                  ", TK
	690 PRINT "TOT(H):                                              ", TOT("H")
	700 PRINT "TOTAL_TIME:                                          ", TOTAL_TIME
	710 PRINT "TRIM(a$):                                            ", TRIM(a$)
	720 PRINT "8 MOD 3:                                             ", 8 MOD 3
	730 pi = 4*ARCTAN(1)
	740 PRINT "SQR(2):                                              ", SQR(2)
	750 PRINT "SQRT(2):                                             ", SQRT(2)
	760 PRINT "SIN(pi/4):                                           ", SIN(pi/4)
	770 PRINT "COS(pi/4):                                           ", COS(pi/4)
	780 PRINT "TAN(pi/4):                                           ", TAN(pi/4)
	790 PRINT "ARCTAN(1):                                           ", ARCTAN(1)
	800 PRINT "LOG(10):                                             ", LOG(10)
	810 PRINT "EXP(2):                                              ", EXP(2)
	820 PRINT "ABS(-2):                                             ", ABS(-2)
	830 PRINT "SGN(-2):                                             ", SGN(-2)
	840 PRINT "STR$(1.33):                                          ", STR$(1.33)
	850 PRINT "VAL( 2.34 ):                                         ", VAL("2.34")
	860 PRINT "Q= + CHR$(81):                                       ", "Q="+CHR$(81)
	870 PRINT "ASC(A):                                              ", ASC("A")
	880 PRINT "LEN( string ), LEN():                                ", LEN("string"), LEN("")
	890 PRINT "MID$( abc , 1, 2):                                   ", MID$("abc", 1, 2)
	900 PRINT "INSTR( abcdef , cd ):                                ", INSTR("abcdef", "cd")
	910 LET b = a
	920 GOTO 940
	930 GOTO 950
	940 GOTO 930
	950 IF(b < a) THEN a = b ELSE b = a
	960 PRINT "String cat"
	970 a$ = "cats "
	980 b$ = "and dogs"
	990 c$ = a$+b$
	1000 PRINT c$
	1010 i = 0
	1020 PRINT "While"
	1030 WHILE(i < 5)
	1040 PRINT i
	1050 i = i+1
	1060 WEND
	1070 PRINT "For"
	1080 FOR i = 10 TO 100 STEP 10
	1090 PRINT i
	1100 NEXT i
	1110 PRINT "Gosub"
	1120 GOSUB 1150
	1130 PRINT "Returned from gosub"
	1140 END
	1150 REM Start of gosub
	1160 PRINT "     Data and Read 1010"
	1170 DATA 1, 2, 3, "abc"
	1180 READ i
	1190 READ j
	1200 READ k
	1210 READ s$
	1220 PRINT i, j, k, s$
	1230 PRINT "     Data and Read 1070"
	1240 DATA 10, 20, 30, "abc"
	1250 READ i
	1260 READ j
	1270 READ k
	1280 READ s$
	1290 PRINT i, j, k, s$
	1300 PRINT "     Restore 1010"
	1310 RESTORE 1170
	1320 READ i
	1330 READ j
	1340 READ k
	1350 READ s$
	1360 PRINT i, j, k, s$
	1370 REM GOTOXY not tested
	1380 PRINT "     ON(i) GOTO"
	1390 ON((i MOD 3)+1)GOTO 1400, 1410, 1420
	1400 PRINT 1210
	1410 PRINT 1220
	1420 PRINT 1230
	1430 PRINT "     DIM"
	1440 DIM arr(10)
	1450 FOR i = 1 TO 10
	1460 arr(i) = i*2
	1470 NEXT i
	1480 FOR i = 1 TO 10
	1490 PRINT arr(i)
	1500 NEXT i
	1510 REM POKE not tested
	1520 REM NEW not tested
	1530 REM LOAD not tested
	1540 PRINT "line 1"+EOL$+"line 2"+EOL$
	1550 PRINT "totmol( Ca ):                                        ", TOTMOLE("Ca")
	1560 PRINT "iso( [18O] ):                                        ", ISO("[18O]")
	1570 PRINT "ceil, floor:                                         ", CEIL(2.8), FLOOR(2.8), CEIL(-2.8), FLOOR(-2.8)
	1580 PRINT "phase_formula( Dolomite ):                            ", PHASE_FORMULA("Dolomite")
	1590 a$ = PHASE_FORMULA("Dolomite", count, elt$, coef)
	1600 FOR i = 1 TO count
	1610 PRINT i, elt$(i), coef(i)
	1620 NEXT i
	1630 a = LIST_S_S("FeZnCO3", count, comp$, moles)
	1640 PRINT "Solid solution FeZnCO3"
	1650 FOR i = 1 TO count
	1660 PRINT i, comp$(i), moles(i)
	1670 NEXT i
	1680 PRINT "PR_P( CO2(g) ):                                      ", PR_P("CO2(g)")
	1690 PRINT "PR_PHI:                                              ", PR_PHI("CO2(g)")
	1700 PRINT "GAS_P:                                               ", GAS_P
	1710 PRINT "GAS_VM:                                              ", GAS_VM
	1720 PRINT "PRESSURE:                                            ", PRESSURE
	1730 PRINT "EPS_R:                                               ", EPS_R
	1740 PRINT "VM(Ca+2)                                             ", VM("Ca+2")
	1750 PRINT "DH_A:                                                ", DH_A
	1760 PRINT "DH_B:                                                ", DH_B
	1770 PRINT "DH_av:                                               ", DH_Av
	1780 PRINT "QBRN:                                                ", QBrn
	1790 PRINT "KAPPA:                                               ", KAPPA
	1800 PRINT "GFW(CaCO3):                                          ", GFW("CaCO3")
	1810 PRINT "SOLN_VOL:                                            ", SOLN_VOL
	1820 PRINT "EQUI_DELTA(Calcite):                                 ", EQUI_DELTA("Calcite")
	1830 PRINT "KIN_DELTA(Organic_C):                                ", KIN_DELTA("Organic_C")
	1840 PRINT "KIN_TIME:                                            ", kin_time
	1850 ae = 2
	1860 DIM ae(4), be(4)
	1870 FOR i = 1 TO 3
	1880 ae(i) = i
	1890 be(i) = -i
	1900 NEXT i
	1910 PRINT "Testing ERASE ae, be"
	1920 ERASE ae, be
	1930 PRINT "1. ae, be: ", ae, be
	1940 ae = 3
	1950 be = ae+1
	1960 PRINT "2. ae, be: ", ae, be
	1970 DIM ae(3), be(3)
	1980 FOR i = 1 TO 3
	1990 ae(i) = -i
	2000 be(i) = i
	2010 NEXT i
	2020 FOR i = 1 TO 3
	2030 PRINT ae(i), be(i)
	2040 NEXT i
	2050 a$ = "   abc    "
	2060 PRINT TRIM(a$)
	2070 RETURN
	2080 PRINT "***should never see this***"
	end
-----------------------------------------
Beginning of batch-reaction calculations.
-----------------------------------------

Reaction step 1.

Using solution 10.	Test solution
Using exchange 1.	Exchange assemblage after simulation 7.
Using surface 1.	
Using pure phase assemblage 1.	
Using solid solution assemblage 1.	
Using gas phase 1.	
Using reaction 1.	
Using kinetics 1.	

Reaction 1.	

	  1.000e-04 moles of the following reaction have been added:

	                 Relative
	Reactant            moles

	O2                   1.00000

	                 Relative
	Element             moles
	O                    2.00000

Kinetics 1.	

	Time step: 8.64e+07 seconds

	Rate name       Delta Moles Total Moles   Reactant        Coefficient

	Organic_C        -7.137e-07   1.000e-01   C                         1

----------------------------------User print-----------------------------------

ALK:                                                    3.6686e-02 
CALC_VALUE:                                           WARNING: CALC_VALUE Basic function, Acidity not found.
 -1.0000e+04 
CELL_NO:                                                        10 
CHARGE_BALANCE:                                         4.2471e-12 
DESCRIPTION:                                          Test solution 
DIST:                                                            0 
EDL(P,Hfo):                                             1.2399e-06 
EQUI(calcite):                                          1.9519e-02 
EXISTS(1):                                                       1 
GAMMA(H+):                                              7.4259e-01 
GAS(CO2(g)):                                            4.8315e-03 
GET(1):                                                        111 
GET_POR(CELL_NO):                                                0 
KIN(Organic_C):                                         9.9999e-02 
LA(H+):                                                -6.9016e+00 
LG(H+):                                                -1.2925e-01 
LK_NAMED(name):                                        -9.9999e+02 
LK_PHASE(Calcite):                                     -8.4800e+00 
LK_SPECIES(CaOH+):                                     -1.2780e+01 
LM(H+):                                                -6.7724e+00 
LTRIM(a$):                                            abc   def    
M:                                                      9.9999e-02 
M0:                                                     1.1000e-01 
MISC1(FeZnCO3):                                         2.1248e-02 
MISC2(FeZnCO3):                                         9.7875e-01 
MOL(H+):                                                1.6890e-07 
MU:                                                     1.0211e+00 
OSMOTIC:                                                         0 
PAD(a$, 20):                                             abc   def         
Print 
RHO:                                                    1.0400e+00 
RHO_0:                                                  9.9704e-01 
RTRIM(a$):                                               abc   def 
RXN:                                                    1.0000e-04 
S_S(Siderite):                                          6.6865e-02 
SC:                                                     8.2548e+04 
SI(Siderite):                                          -8.5430e-03 
SIM_NO:                                                          9 
SIM_TIME:                                                 86400000 
SR(Smithsonite):                                        9.8052e-01 
STEP_NO:                                                         1 
SUM_GAS(CO2*, O):                                       9.6629e-03 
SUM_S_S(FeZnCO3, Fe):                                   6.6865e-02 
SUM_SPECIES(Ca*, Ca):                                   2.8022e-03 
SURF(Fe, Hfo):                                          2.2122e-06 
SYS(aq, count, names$, types$, values):                 2.0492e+00 
                                                      Cl-            9.9391e-01 
SYS(H, count_species, names$, types$, moles):           1.1102e+02 
                                                      H2O            9.9391e-01 
SYS(elements, count, names$, types$, values):           2.0546e+00 
                                                      O              1.1101e+02 
SYS(ex, count, names$, types$, values):                 9.9151e-04 
                                                      NaX            9.8302e-04 
SYS(gas, count, names$, types$, values):                3.6726e-02 
                                                      N2(g)          3.1894e-02 
SYS(phases, count, names$, types$, values):             2.5469e+01 
                                                      Hematite       2.5469e+01 
SYS(s_s, count, names$, types$, values):                1.6635e-01 
                                                      Smithsonite    9.9490e-02 
SYS(surf, count, names$, types$, values):               3.0486e-03 
                                                      Hfo_wHCO3      1.6860e-03 
TC:                                                             25 
TIME:                                                     86400000 
TITLE:                                                 Testing basic functions 
TK:                                                     2.9815e+02 
TOT(H):                                                 1.1112e+02 
TOTAL_TIME:                                               86400000 
TRIM(a$):                                             abc   def 
8 MOD 3:                                                2.0000e+00 
SQR(2):                                                          4 
SQRT(2):                                                1.4142e+00 
SIN(pi/4):                                              7.0711e-01 
COS(pi/4):                                              7.0711e-01 
TAN(pi/4):                                              1.0000e+00 
ARCTAN(1):                                              7.8540e-01 
LOG(10):                                                2.3026e+00 
EXP(2):                                                 7.3891e+00 
ABS(-2):                                                         2 
SGN(-2):                                                        -1 
STR$(1.33):                                             1.3300e+00 
VAL( 2.34 ):                                            2.3400e+00 
Q= + CHR$(81):                                        Q=Q 
ASC(A):                                                         65 
LEN( string ), LEN():                                            6            0 
MID$( abc , 1, 2):                                    ab 
INSTR( abcdef , cd ):                                            3 
String cat 
cats and dogs 
While 
           0 
           1 
           2 
           3 
           4 
For 
          10 
          20 
          30 
          40 
          50 
          60 
          70 
          80 
          90 
         100 
Gosub 
     Data and Read 1010 
           1            2            3 abc 
     Data and Read 1070 
          10           20           30 abc 
     Restore 1010 
           1            2            3 abc 
     ON(i) GOTO 
        1220 
        1230 
     DIM 
           2 
           4 
           6 
           8 
          10 
          12 
          14 
          16 
          18 
          20 
line 1
line 2
 
totmol( Ca ):                                           2.7941e-03 
iso( [18O] ):                                                -1000 
ceil, floor:                                                     3            2           -2           -3 
phase_formula( Dolomite ):                             CaMg(CO3)2 
           1 C            2 
           2 Ca            1 
           3 Mg            1 
           4 O            6 
Solid solution FeZnCO3 
           1 Smithsonite   9.9490e-02 
           2 Siderite   6.6865e-02 
PR_P( CO2(g) ):                                         1.1811e-01 
PR_PHI:                                                 9.9632e-01 
GAS_P:                                                  8.9781e-01 
GAS_VM:                                                 2.7229e+01 
PRESSURE:                                               8.9781e-01 
EPS_R:                                                  7.8384e+01 
VM(Ca+2)                                               -1.6458e+01 
DH_A:                                                   5.1003e-01 
DH_B:                                                   3.2849e-01 
DH_av:                                                  1.8874e+00 
QBRN:                                                   2.5235e-05 
KAPPA:                                                  4.5173e-05 
GFW(CaCO3):                                             1.0009e+02 
SOLN_VOL:                                               1.0214e+00 
EQUI_DELTA(Calcite):                                   -4.8099e-04 
KIN_DELTA(Organic_C):                                  -7.1373e-07 
KIN_TIME:                                                 86400000 
Testing ERASE ae, be 
1. ae, be:             0            0 
2. ae, be:             3            4 
          -1            1 
          -2            2 
          -3            3 
abc 
Returned from gosub 

-----------------------------------Gas phase-----------------------------------

Total pressure:  0.90      atmospheres          (Peng-Robinson calculation)
    Gas volume:   1.00e+00 liters
  Molar volume:   2.72e+01 liters/mole
   P * Vm / RT:  0.99919  (Compressibility Factor Z) 

                                                        Moles in gas
                                            ----------------------------------
Component         log P           P    phi     Initial       Final       Delta

CO2(g)            -0.93   1.181e-01  0.996   1.227e-04   4.831e-03   4.709e-03
N2(g)             -0.11   7.797e-01  1.000   3.231e-02   3.189e-02  -4.132e-04
O2(g)            -20.90   1.247e-21  0.999   8.179e-03   5.100e-23  -8.179e-03

-------------------------------Phase assemblage--------------------------------

                                                      Moles in assemblage
Phase               SI  log IAP  log K(T, P)   Initial       Final       Delta

Calcite           0.00    -8.48     -8.48    2.000e-02   1.952e-02  -4.810e-04

--------------------------------Solid solutions--------------------------------


Solid solution                Component        Moles  Delta moles   Mole fract

FeZnCO3                                     1.66e-01
                               Siderite     6.69e-02    -3.31e-02     4.02e-01
                            Smithsonite     9.95e-02    -5.10e-04     5.98e-01

                Solid solution is in miscibility gap
                End members in pct of Smithsonite

                           0.021248 pct     6.61e-02
                           0.978752 pct     1.00e-01

------------------------------Surface composition------------------------------

Diffuse Double Layer Surface-Complexation Model

Hfo           
	 -3.403e-14  Surface + diffuse layer charge, eq
	 -2.831e-04  Surface charge, eq
	 -4.553e-02  sigma, C/m²
	 -1.928e-02  psi, V
	  7.504e-01  -F*psi/RT
	  2.118e+00  exp(-F*psi/RT)
	  6.000e+02  specific area, m²/g
	  6.000e+02  m² for   1.000e+00 g

	Water in diffuse layer: 6.000e-03 kg, 100.0% of total DDL-water.

	Total moles in diffuse layer (excluding water), Donnan calculation.
	Donnan Layer potential, psi_DL = -5.935e-04 V.
	Boltzmann factor, exp(-psi_DL * F / RT) = 1.023e+00 (= c_DL / c_free if z is +1).

	Element       	     Moles
	C             	  1.6835e-04
	Ca            	  1.7544e-05
	Cl            	  5.8341e-03
	Fe            	  2.0081e-04
	H             	  6.1853e-04
	N             	  4.9330e-06
	Na            	  6.1076e-03
	O             	  9.8208e-04
	P             	  1.2399e-06
	S             	  5.7804e-06
	Zn            	  1.7922e-06

Hfo_s         
	  5.978e-05  moles
	                                   Mole                     Log
	Species               Moles    Fraction    Molality    Molality

	Hfo_sOZn+         5.488e-05       0.918   5.493e-05      -4.260
	Hfo_sOHCa+2       4.702e-06       0.079   4.706e-06      -5.327
	Hfo_sOH2+         9.003e-08       0.002   9.011e-08      -7.045
	Hfo_sOFe+         8.118e-08       0.001   8.125e-08      -7.090
	Hfo_sOH           1.738e-08       0.000   1.740e-08      -7.759
	Hfo_sO-           7.689e-11       0.000   7.696e-11     -10.114

Hfo_w         
	  2.989e-03  moles
	                                   Mole                     Log
	Species               Moles    Fraction    Molality    Molality

	Hfo_wHCO3         1.686e-03       0.564   1.687e-03      -2.773
	Hfo_wHPO4-        6.079e-04       0.203   6.085e-04      -3.216
	Hfo_wOH2+         2.508e-04       0.084   2.510e-04      -3.600
	Hfo_wOZn+         1.601e-04       0.054   1.602e-04      -3.795
	Hfo_wH2PO4        1.283e-04       0.043   1.284e-04      -3.891
	Hfo_wCO3-         5.528e-05       0.018   5.533e-05      -4.257
	Hfo_wPO4-2        4.893e-05       0.016   4.898e-05      -4.310
	Hfo_wOH           4.842e-05       0.016   4.847e-05      -4.315
	Hfo_wOFe+         2.110e-06       0.001   2.112e-06      -5.675
	Hfo_wOCa+         7.464e-07       0.000   7.470e-07      -6.127
	Hfo_wO-           2.142e-07       0.000   2.144e-07      -6.669
	Hfo_wOFeOH        2.064e-08       0.000   2.066e-08      -7.685
	Hfo_wSO4-         1.119e-08       0.000   1.120e-08      -7.951
	Hfo_wOHSO4-2      4.160e-09       0.000   4.163e-09      -8.381

-----------------------------Exchange composition------------------------------

X                1.000e-03 mol

	                               Equiv-    Equivalent      Log 
	Species             Moles      alents      Fraction     Gamma

	NaX               9.830e-04   9.830e-04   9.830e-01    -0.135
	CaX2              8.120e-06   1.624e-05   1.624e-02    -0.607
	ZnX2              3.544e-07   7.088e-07   7.088e-04    -0.775
	FeX2              1.635e-08   3.270e-08   3.270e-05    -0.689
	NH4X              7.157e-43   7.157e-43   7.157e-40     0.000

-----------------------------Solution composition------------------------------

	Elements           Molality       Moles

	C                 2.853e-02   2.851e-02
	Ca                2.797e-03   2.794e-03
	Cl                9.951e-01   9.942e-01
	Fe                3.296e-02   3.293e-02
	N                 8.222e-04   8.214e-04
	Na                9.948e-01   9.939e-01
	P                 2.138e-04   2.136e-04
	S                 9.951e-04   9.942e-04
	Zn                2.930e-04   2.927e-04

----------------------------Description of solution----------------------------

                                       pH  =   6.902      Charge balance
                                       pe  =   8.677      Adjusted to redox equilibrium
      Specific Conductance (µS/cm,  25°C)  = 82548
                          Density (g/cm³)  =   1.04002
                               Volume (L)  =   1.02140
                        Viscosity (mPa s)  =   0.97775
                        Activity of water  =   0.965
                 Ionic strength (mol/kgw)  =   1.021e+00
                       Mass of water (kg)  =   9.991e-01
                 Total alkalinity (eq/kg)  =   3.669e-02
                       Total CO2 (mol/kg)  =   2.853e-02
                         Temperature (°C)  =  25.00
                           Pressure (atm)  =  0.90
                  Electrical balance (eq)  =   4.247e-12
 Percent error, 100*(Cat-|An|)/(Cat+|An|)  =   0.00
                               Iterations  =  20 (70 overall)
                                  Total H  = 1.110139e+02
                                  Total O  = 5.561982e+01

----------------------------Distribution of species----------------------------

                                               Log       Log       Log    mole V
   Species          Molality    Activity  Molality  Activity     Gamma   cm³/mol

   H+              1.689e-07   1.254e-07    -6.772    -6.902    -0.129      0.00
   OH-             1.349e-07   7.789e-08    -6.870    -7.109    -0.238     -2.07
   H2O             5.551e+01   9.651e-01     1.744    -0.015     0.000     18.07
C(-4)         0.000e+00
   CH4             0.000e+00   0.000e+00  -102.706  -102.604     0.102     35.46
C(4)          2.853e-02
   HCO3-           2.096e-02   1.370e-02    -1.679    -1.863    -0.185     27.33
   NaHCO3          3.870e-03   6.647e-03    -2.412    -2.177     0.235     28.00
   CO2             3.429e-03   4.004e-03    -2.465    -2.397     0.067     34.43
   CaHCO3+         1.680e-04   1.130e-04    -3.775    -3.947    -0.172      9.98
   ZnHCO3+         4.157e-05   3.301e-05    -4.381    -4.481    -0.100     (0)  
   CO3-2           2.805e-05   5.124e-06    -4.552    -5.290    -0.738      0.55
   ZnCO3           1.546e-05   1.956e-05    -4.811    -4.709     0.102     (0)  
   Zn(CO3)2-2      5.389e-06   2.143e-06    -5.268    -5.669    -0.400     (0)  
   CaCO3           4.397e-06   5.563e-06    -5.357    -5.255     0.102    -14.60
   FeHCO3+         4.254e-06   3.378e-06    -5.371    -5.471    -0.100     (0)  
   FeCO3           2.395e-07   3.030e-07    -6.621    -6.519     0.102     (0)  
   (CO2)2          2.326e-07   2.943e-07    -6.633    -6.531     0.102     68.87
Ca            2.797e-03
   Ca+2            2.612e-03   6.462e-04    -2.583    -3.190    -0.607    -16.46
   CaHCO3+         1.680e-04   1.130e-04    -3.775    -3.947    -0.172      9.98
   CaSO4           5.676e-06   7.181e-06    -5.246    -5.144     0.102      7.50
   CaHPO4          5.178e-06   6.551e-06    -5.286    -5.184     0.102     (0)  
   CaCO3           4.397e-06   5.563e-06    -5.357    -5.255     0.102    -14.60
   CaH2PO4+        9.446e-07   6.176e-07    -6.025    -6.209    -0.185     (0)  
   CaPO4-          1.890e-07   1.236e-07    -6.724    -6.908    -0.185     (0)  
   CaOH+           1.039e-09   8.253e-10    -8.983    -9.083    -0.100     (0)  
   CaHSO4+         7.455e-12   5.920e-12   -11.128   -11.228    -0.100     (0)  
Cl            9.951e-01
   Cl-             9.948e-01   6.045e-01    -0.002    -0.219    -0.216     18.95
   ZnCl+           5.183e-05   3.113e-05    -4.285    -4.507    -0.221    -17.14
   ZnCl4-2         2.412e-05   4.048e-06    -4.618    -5.393    -0.775    152.17
   ZnCl3-          2.225e-05   1.336e-05    -4.653    -4.874    -0.221      9.98
   ZnCl2           1.557e-05   1.970e-05    -4.808    -4.705     0.102    102.03
   FeCl+           2.590e-06   2.057e-06    -5.587    -5.687    -0.100     (0)  
   ZnOHCl          2.330e-06   2.947e-06    -5.633    -5.531     0.102     (0)  
   FeCl+2          1.217e-08   2.042e-09    -7.915    -8.690    -0.775     (0)  
   HCl             9.601e-09   2.612e-08    -8.018    -7.583     0.435     (0)  
   FeCl2+          8.613e-09   5.513e-09    -8.065    -8.259    -0.194     (0)  
   FeCl3           2.634e-10   3.332e-10    -9.579    -9.477     0.102     (0)  
Fe(2)         1.938e-05
   Fe+2            1.205e-05   2.465e-06    -4.919    -5.608    -0.689    -20.44
   FeHCO3+         4.254e-06   3.378e-06    -5.371    -5.471    -0.100     (0)  
   FeCl+           2.590e-06   2.057e-06    -5.587    -5.687    -0.100     (0)  
   FeCO3           2.395e-07   3.030e-07    -6.621    -6.519     0.102     (0)  
   FeHPO4          1.434e-07   1.814e-07    -6.843    -6.741     0.102     (0)  
   FeH2PO4+        7.058e-08   4.614e-08    -7.151    -7.336    -0.185     (0)  
   FeSO4           2.165e-08   2.739e-08    -7.665    -7.562     0.102     18.97
   FeOH+           9.371e-09   5.998e-09    -8.028    -8.222    -0.194     (0)  
   Fe(OH)2         3.105e-13   3.929e-13   -12.508   -12.406     0.102     (0)  
   FeHSO4+         2.844e-14   2.258e-14   -13.546   -13.646    -0.100     (0)  
   Fe(OH)3-        1.755e-16   1.123e-16   -15.756   -15.950    -0.194     (0)  
   Fe(HS)2         0.000e+00   0.000e+00  -200.804  -200.702     0.102     (0)  
   Fe(HS)3-        0.000e+00   0.000e+00  -300.587  -300.687    -0.100     (0)  
Fe(3)         3.294e-02
   Fe(OH)2+        2.166e-02   1.416e-02    -1.664    -1.849    -0.185     (0)  
   Fe(OH)3         1.110e-02   1.404e-02    -1.955    -1.853     0.102     (0)  
   Fe(OH)4-        1.507e-04   9.852e-05    -3.822    -4.006    -0.185     (0)  
   FeOH+2          3.311e-05   5.558e-06    -4.480    -5.255    -0.775     (0)  
   Fe3(OH)4+5      7.825e-07   2.460e-09    -6.107    -8.609    -2.503     (0)  
   Fe2(OH)2+4      3.322e-08   8.313e-10    -7.479    -9.080    -1.602     (0)  
   FeCl+2          1.217e-08   2.042e-09    -7.915    -8.690    -0.775     (0)  
   FeCl2+          8.613e-09   5.513e-09    -8.065    -8.259    -0.194     (0)  
   FeH2PO4+2       6.155e-09   1.124e-09    -8.211    -8.949    -0.738     (0)  
   Fe+3            1.629e-09   1.119e-10    -8.788    -9.951    -1.163     (0)  
   FeHPO4+         8.697e-10   5.566e-10    -9.061    -9.254    -0.194     (0)  
   FeCl3           2.634e-10   3.332e-10    -9.579    -9.477     0.102     (0)  
   FeSO4+          1.197e-10   7.664e-11    -9.922   -10.116    -0.194     (0)  
   Fe(SO4)2-       1.319e-13   1.048e-13   -12.880   -12.980    -0.100     (0)  
   FeHSO4+2        6.472e-17   2.574e-17   -16.189   -16.589    -0.400     (0)  
H(0)          7.797e-35
   H2              3.899e-35   4.932e-35   -34.409   -34.307     0.102     28.61
N(-3)         3.464e-40
   NH4+            3.464e-40   1.811e-40   -39.460   -39.742    -0.282     18.53
   NH3             0.000e+00   0.000e+00   -42.187   -42.085     0.102     24.42
   NH4SO4-         0.000e+00   0.000e+00   -42.476   -42.836    -0.360     41.33
N(0)          8.222e-04
   N2              4.111e-04   5.200e-04    -3.386    -3.284     0.102     29.29
N(3)          1.789e-23
   NO2-            1.789e-23   9.869e-24   -22.748   -23.006    -0.258     25.89
N(5)          6.669e-21
   NO3-            6.669e-21   3.680e-21   -20.176   -20.434    -0.258     30.50
Na            9.948e-01
   Na+             9.903e-01   7.254e-01    -0.004    -0.139    -0.135     -0.30
   NaHCO3          3.870e-03   6.647e-03    -2.412    -2.177     0.235     28.00
   NaSO4-          5.802e-04   1.771e-04    -3.236    -3.752    -0.515     22.61
   NaHPO4-         4.000e-05   2.615e-05    -4.398    -4.582    -0.185    105.98
   NaOH            4.466e-18   5.650e-18   -17.350   -17.248     0.102     (0)  
O(0)          2.524e-24
   O2              1.262e-24   1.596e-24   -23.899   -23.797     0.102     30.40
P             2.138e-04
   HPO4-2          1.102e-04   1.849e-05    -3.958    -4.733    -0.775     10.40
   H2PO4-          5.713e-05   3.735e-05    -4.243    -4.428    -0.185     35.29
   NaHPO4-         4.000e-05   2.615e-05    -4.398    -4.582    -0.185    105.98
   CaHPO4          5.178e-06   6.551e-06    -5.286    -5.184     0.102     (0)  
   CaH2PO4+        9.446e-07   6.176e-07    -6.025    -6.209    -0.185     (0)  
   CaPO4-          1.890e-07   1.236e-07    -6.724    -6.908    -0.185     (0)  
   FeHPO4          1.434e-07   1.814e-07    -6.843    -6.741     0.102     (0)  
   FeH2PO4+        7.058e-08   4.614e-08    -7.151    -7.336    -0.185     (0)  
   PO4-3           6.535e-09   6.646e-11    -8.185   -10.177    -1.993    -15.94
   FeH2PO4+2       6.155e-09   1.124e-09    -8.211    -8.949    -0.738     (0)  
   FeHPO4+         8.697e-10   5.566e-10    -9.061    -9.254    -0.194     (0)  
   H3PO4           5.452e-10   6.897e-10    -9.263    -9.161     0.102     47.41
S(-2)         0.000e+00
   HS-             0.000e+00   0.000e+00  -101.784  -102.022    -0.238     21.53
   H2S             0.000e+00   0.000e+00  -102.084  -101.982     0.102     36.27
   S-2             0.000e+00   0.000e+00  -107.263  -108.038    -0.775     (0)  
   Zn(HS)2         0.000e+00   0.000e+00  -193.924  -193.822     0.102     (0)  
   Fe(HS)2         0.000e+00   0.000e+00  -200.804  -200.702     0.102     (0)  
   (H2S)2          0.000e+00   0.000e+00  -205.344  -205.242     0.102     30.09
   Zn(HS)3-        0.000e+00   0.000e+00  -294.584  -294.684    -0.100     (0)  
   Fe(HS)3-        0.000e+00   0.000e+00  -300.587  -300.687    -0.100     (0)  
S(6)          9.951e-04
   NaSO4-          5.802e-04   1.771e-04    -3.236    -3.752    -0.515     22.61
   SO4-2           4.090e-04   6.249e-05    -3.388    -4.204    -0.816     18.48
   CaSO4           5.676e-06   7.181e-06    -5.246    -5.144     0.102      7.50
   ZnSO4           2.216e-07   2.803e-07    -6.655    -6.552     0.102     21.71
   FeSO4           2.165e-08   2.739e-08    -7.665    -7.562     0.102     18.97
   HSO4-           9.595e-10   7.620e-10    -9.018    -9.118    -0.100     41.11
   Zn(SO4)2-2      3.579e-10   1.424e-10    -9.446    -9.847    -0.400     -1.85
   FeSO4+          1.197e-10   7.664e-11    -9.922   -10.116    -0.194     (0)  
   CaHSO4+         7.455e-12   5.920e-12   -11.128   -11.228    -0.100     (0)  
   Fe(SO4)2-       1.319e-13   1.048e-13   -12.880   -12.980    -0.100     (0)  
   FeHSO4+         2.844e-14   2.258e-14   -13.546   -13.646    -0.100     (0)  
   FeHSO4+2        6.472e-17   2.574e-17   -16.189   -16.589    -0.400     (0)  
   NH4SO4-         0.000e+00   0.000e+00   -42.476   -42.836    -0.360     41.33
Zn            2.930e-04
   Zn+2            1.140e-04   1.913e-05    -3.943    -4.718    -0.775    -23.96
   ZnCl+           5.183e-05   3.113e-05    -4.285    -4.507    -0.221    -17.14
   ZnHCO3+         4.157e-05   3.301e-05    -4.381    -4.481    -0.100     (0)  
   ZnCl4-2         2.412e-05   4.048e-06    -4.618    -5.393    -0.775    152.17
   ZnCl3-          2.225e-05   1.336e-05    -4.653    -4.874    -0.221      9.98
   ZnCl2           1.557e-05   1.970e-05    -4.808    -4.705     0.102    102.03
   ZnCO3           1.546e-05   1.956e-05    -4.811    -4.709     0.102     (0)  
   Zn(CO3)2-2      5.389e-06   2.143e-06    -5.268    -5.669    -0.400     (0)  
   ZnOHCl          2.330e-06   2.947e-06    -5.633    -5.531     0.102     (0)  
   ZnSO4           2.216e-07   2.803e-07    -6.655    -6.552     0.102     21.71
   ZnOH+           2.033e-07   1.614e-07    -6.692    -6.792    -0.100     (0)  
   Zn(OH)2         1.128e-08   1.426e-08    -7.948    -7.846     0.102     (0)  
   Zn(SO4)2-2      3.579e-10   1.424e-10    -9.446    -9.847    -0.400     -1.85
   Zn(OH)3-        4.371e-13   3.471e-13   -12.359   -12.460    -0.100     (0)  
   Zn(OH)4-2       1.064e-18   4.233e-19   -17.973   -18.373    -0.400     (0)  
   Zn(HS)2         0.000e+00   0.000e+00  -193.924  -193.822     0.102     (0)  
   Zn(HS)3-        0.000e+00   0.000e+00  -294.584  -294.684    -0.100     (0)  

------------------------------Saturation indices-------------------------------

  Phase               SI** log IAP   log K(298 K,   1 atm)

  Anhydrite        -3.12     -7.39   -4.28  CaSO4
  Aragonite        -0.14     -8.48   -8.34  CaCO3
  Calcite           0.00     -8.48   -8.48  CaCO3
  CH4(g)          -99.80   -102.60   -2.80  CH4
  CO2(g)           -0.93     -2.40   -1.47  CO2	 Pressure   0.1 atm, phi 0.996
  Fe(OH)3(a)        5.82     10.71    4.89  Fe(OH)3
  FeS(ppt)        -96.81   -100.73   -3.92  FeS
  Goethite         11.72     10.72   -1.00  FeOOH
  Gypsum           -2.84     -7.42   -4.58  CaSO4:2H2O
  H2(g)           -31.21    -34.31   -3.10  H2
  H2O(g)           -1.52     -0.02    1.50  H2O
  H2S(g)         -100.99   -108.92   -7.94  H2S
  Halite           -1.93     -0.36    1.57  NaCl
  Hematite         25.47     21.46   -4.01  Fe2O3
  Hydroxyapatite    0.86     -2.56   -3.42  Ca5(PO4)3OH
  Mackinawite     -96.08   -100.73   -4.65  FeS
  Melanterite      -7.71     -9.92   -2.21  FeSO4:7H2O
  Mirabilite       -3.40     -4.64   -1.24  Na2SO4:10H2O
  N2(g)            -0.11     -3.28   -3.18  N2	 Pressure   0.8 atm, phi 1.000
  NH3(g)          -43.88    -42.08    1.80  NH3
  O2(g)           -20.90    -23.80   -2.89  O2	 Pressure   0.0 atm, phi 0.999
  Pyrite         -160.02   -178.50  -18.48  FeS2
  Siderite         -0.01    -10.90  -10.89  FeCO3
  Smithsonite      -0.01    -10.01  -10.00  ZnCO3
  Sphalerite      -88.22    -99.84  -11.62  ZnS
  Sulfur          -75.71    -70.83    4.88  S
  Thenardite       -4.18     -4.48   -0.30  Na2SO4
  Vivianite        -1.30    -37.30  -36.00  Fe3(PO4)2:8H2O
  Zn(OH)2(e)       -2.45      9.05   11.50  Zn(OH)2

**For a gas, SI = log10(fugacity). Fugacity = pressure * phi / 1 atm.
  For ideal gases, phi = 1.

------------------
End of simulation.
------------------

-------------------------------------
Reading input data for simulation 10.
-------------------------------------

