   Input file: Ca_Na_K_Clmix
  Output file: Ca_Na_K_Clmix.out
Database file: ../database/pitzer.dat

------------------
Reading data base.
------------------

	SOLUTION_MASTER_SPECIES
	SOLUTION_SPECIES
	PHASES
	PITZER
	EXCHANGE_MASTER_SPECIES
	EXCHANGE_SPECIES
	SURFACE_MASTER_SPECIES
	SURFACE_SPECIES
	END
------------------------------------
Reading input data for simulation 1.
------------------------------------

	DATABASE ../database/pitzer.dat
	SELECTED_OUTPUT 101
	    file                 Ca_Na_K_Clmix_101.sel
	USER_PUNCH 101
	    headings Mu SC Viscosity
	    start
	10 PUNCH STR_F$(MU, 20, 12)
	20 PUNCH STR_F$(SC, 20, 10)
	30 PUNCH STR_F$(VISCOS, 20, 10)
	    end
	SOLUTION 1
	INCREMENTAL_REACTIONS true
	REACTION 1
	CaCl2 1
	10*1e-3 9*1e-2 9*0.1 11*0.7
	USER_GRAPH 1
	-axis_titles "K+  +  Ca+2 / (mol/kgw)" "viscosity / (mPa·s)"
	-axis_scale x_axis 0 5
	-axis_scale y_axis 0.8 5
	-plot_tsv_file Zhang_CaCl.dat
	-connect_simulations false
	10 graph_x tot("K") + tot("Ca")
	30 graph_y viscos 
	USER_GRAPH 2
	-axis_titles "Na+  +  Ca+2 / (mol/kgw)" "viscosity / (mPa·s)"
	-axis_scale x_axis 0 6.3
	-axis_scale y_axis 0.8 9
	-plot_tsv_file Zhang_CaCl.dat
	-plot_tsv_file Zhang_NaCaCl.dat
	-connect_simulations false
	10 graph_x tot("Na") + tot("Ca")
	30 graph_y viscos 
	END
-------------------------------------------
Beginning of initial solution calculations.
-------------------------------------------

Initial solution 1.	

-----------------------------Solution composition------------------------------

	Elements           Molality       Moles

	Pure water     

----------------------------Description of solution----------------------------

                                       pH  =   7.000    
                                       pe  =   4.000    
      Specific Conductance (µS/cm,  25°C)  = 0
                          Density (g/cm³)  =   0.99704
                               Volume (L)  =   1.00297
                        Activity of water  =   1.000
                 Ionic strength (mol/kgw)  =   1.006e-07
                       Mass of water (kg)  =   1.000e+00
                 Total alkalinity (eq/kg)  =   1.216e-09
                         Temperature (°C)  =  25.00
                  Electrical balance (eq)  =  -1.216e-09
 Percent error, 100*(Cat-|An|)/(Cat+|An|)  =  -0.60
                               Iterations  =   3
                         Gamma iterations  =   2
                      Osmotic coefficient  =   0.99988
                         Density of water  =   0.99704
                                  Total H  = 1.110124e+02
                                  Total O  = 5.550622e+01

----------------------------Distribution of species----------------------------

                                                    MacInnes  MacInnes
                                MacInnes       Log       Log       Log    mole V
   Species          Molality    Activity  Molality  Activity     Gamma    cm³/mol

   OH-             1.013e-07   1.012e-07    -6.995    -6.995    -0.000     -4.14
   H+              1.000e-07   1.000e-07    -7.000    -7.000    -0.000      0.00
   H2O             5.551e+01   1.000e+00     1.744    -0.000     0.000     18.07

------------------------------Saturation indices-------------------------------

  Phase               SI** log IAP   log K(298 K,   1 atm)

  H2O(g)           -1.50     -0.00    1.50  H2O

**For a gas, SI = log10(fugacity). Fugacity = pressure * phi / 1 atm.
  For ideal gases, phi = 1.

-----------------------------------------
Beginning of batch-reaction calculations.
-----------------------------------------

Reaction step 1.

Using solution 1.	
Using reaction 1.	

Reaction 1.	

	  1.000e-03 moles of the following reaction have been added:

	                 Relative
	Reactant            moles

	CaCl2                1.00000

	                 Relative
	Element             moles
	Ca                   1.00000
	Cl                   2.00000

-----------------------------Solution composition------------------------------

	Elements           Molality       Moles

	Ca                1.000e-03   1.000e-03
	Cl                2.000e-03   2.000e-03

----------------------------Description of solution----------------------------

                                       pH  =   6.998      Charge balance
                                       pe  =   4.000      Adjusted to redox equilibrium
      Specific Conductance (µS/cm,  25°C)  = 250
                          Density (g/cm³)  =   0.99714
                               Volume (L)  =   1.00298
                        Activity of water  =   1.000
                 Ionic strength (mol/kgw)  =   3.000e-03
                       Mass of water (kg)  =   1.000e+00
                 Total alkalinity (eq/kg)  =   1.216e-09
                         Temperature (°C)  =  25.00
                  Electrical balance (eq)  =  -1.204e-09
 Percent error, 100*(Cat-|An|)/(Cat+|An|)  =  -0.00
                               Iterations  =   5
                         Gamma iterations  =   2
                      Osmotic coefficient  =   0.96133
                         Density of water  =   0.99704
                                  Total H  = 1.110124e+02
                                  Total O  = 5.550622e+01

----------------------------Distribution of species----------------------------

                                                    MacInnes  MacInnes
                                MacInnes       Log       Log       Log    mole V
   Species          Molality    Activity  Molality  Activity     Gamma    cm³/mol

   OH-             1.081e-07   1.007e-07    -6.966    -6.997    -0.031     -4.08
   H+              1.069e-07   1.005e-07    -6.971    -6.998    -0.027      0.00
   H2O             5.551e+01   9.999e-01     1.744    -0.000     0.000     18.07
Ca            1.000e-03
   Ca+2            1.000e-03   7.862e-04    -3.000    -3.104    -0.104    -18.06
Cl            2.000e-03
   Cl-             2.000e-03   1.883e-03    -2.699    -2.725    -0.026     18.10

------------------------------Saturation indices-------------------------------

  Phase               SI** log IAP   log K(298 K,   1 atm)

  H2O(g)           -1.50     -0.00    1.50  H2O
  Portlandite     -11.91    -17.10   -5.19  Ca(OH)2

**For a gas, SI = log10(fugacity). Fugacity = pressure * phi / 1 atm.
  For ideal gases, phi = 1.

Reaction step 2.

Using solution 1.	
Using reaction 1.	

Reaction 1.	

	  1.000e-03 moles of the following reaction have been added:

	                 Relative
	Reactant            moles

	CaCl2                1.00000

	                 Relative
	Element             moles
	Ca                   1.00000
	Cl                   2.00000

-----------------------------Solution composition------------------------------

	Elements           Molality       Moles

	Ca                2.000e-03   2.000e-03
	Cl                4.000e-03   4.000e-03

----------------------------Description of solution----------------------------

                                       pH  =   6.996      Charge balance
                                       pe  =   4.000      Adjusted to redox equilibrium
      Specific Conductance (µS/cm,  25°C)  = 490
                          Density (g/cm³)  =   0.99723
                               Volume (L)  =   1.00300
                        Activity of water  =   1.000
                 Ionic strength (mol/kgw)  =   6.000e-03
                       Mass of water (kg)  =   1.000e+00
                 Total alkalinity (eq/kg)  =   1.216e-09
                         Temperature (°C)  =  25.00
                  Electrical balance (eq)  =  -1.196e-09
 Percent error, 100*(Cat-|An|)/(Cat+|An|)  =  -0.00
                               Iterations  =   7
                         Gamma iterations  =   2
                      Osmotic coefficient  =   0.94785
                         Density of water  =   0.99704
                                  Total H  = 1.110124e+02
                                  Total O  = 5.550622e+01

----------------------------Distribution of species----------------------------

                                                    MacInnes  MacInnes
                                MacInnes       Log       Log       Log    mole V
   Species          Molality    Activity  Molality  Activity     Gamma    cm³/mol

   OH-             1.111e-07   1.003e-07    -6.954    -6.999    -0.044     -4.06
   H+              1.098e-07   1.009e-07    -6.959    -6.996    -0.037      0.00
   H2O             5.551e+01   9.999e-01     1.744    -0.000     0.000     18.07
Ca            2.000e-03
   Ca+2            2.000e-03   1.439e-03    -2.699    -2.842    -0.143    -17.99
Cl            4.000e-03
   Cl-             4.000e-03   3.682e-03    -2.398    -2.434    -0.036     18.12

------------------------------Saturation indices-------------------------------

  Phase               SI** log IAP   log K(298 K,   1 atm)

  H2O(g)           -1.50     -0.00    1.50  H2O
  Portlandite     -11.65    -16.84   -5.19  Ca(OH)2

**For a gas, SI = log10(fugacity). Fugacity = pressure * phi / 1 atm.
  For ideal gases, phi = 1.

Reaction step 3.

Using solution 1.	
Using reaction 1.	

Reaction 1.	

	  1.000e-03 moles of the following reaction have been added:

	                 Relative
	Reactant            moles

	CaCl2                1.00000

	                 Relative
	Element             moles
	Ca                   1.00000
	Cl                   2.00000

-----------------------------Solution composition------------------------------

	Elements           Molality       Moles

	Ca                3.000e-03   3.000e-03
	Cl                6.000e-03   6.000e-03

----------------------------Description of solution----------------------------

                                       pH  =   6.994      Charge balance
                                       pe  =   4.000      Adjusted to redox equilibrium
      Specific Conductance (µS/cm,  25°C)  = 725
                          Density (g/cm³)  =   0.99732
                               Volume (L)  =   1.00302
                        Activity of water  =   1.000
                 Ionic strength (mol/kgw)  =   9.000e-03
                       Mass of water (kg)  =   1.000e+00
                 Total alkalinity (eq/kg)  =   1.216e-09
                         Temperature (°C)  =  25.00
                  Electrical balance (eq)  =  -1.188e-09
 Percent error, 100*(Cat-|An|)/(Cat+|An|)  =  -0.00
                               Iterations  =   6
                         Gamma iterations  =   2
                      Osmotic coefficient  =   0.93847
                         Density of water  =   0.99704
                                  Total H  = 1.110124e+02
                                  Total O  = 5.550622e+01

----------------------------Distribution of species----------------------------

                                                    MacInnes  MacInnes
                                MacInnes       Log       Log       Log    mole V
   Species          Molality    Activity  Molality  Activity     Gamma    cm³/mol

   OH-             1.133e-07   9.988e-08    -6.946    -7.001    -0.055     -4.04
   H+              1.121e-07   1.013e-07    -6.950    -6.994    -0.044      0.00
   H2O             5.551e+01   9.998e-01     1.744    -0.000     0.000     18.07
Ca            3.000e-03
   Ca+2            3.000e-03   2.024e-03    -2.523    -2.694    -0.171    -17.94
Cl            6.000e-03
   Cl-             6.000e-03   5.432e-03    -2.222    -2.265    -0.043     18.13

------------------------------Saturation indices-------------------------------

  Phase               SI** log IAP   log K(298 K,   1 atm)

  H2O(g)           -1.50     -0.00    1.50  H2O
  Portlandite     -11.50    -16.69   -5.19  Ca(OH)2

**For a gas, SI = log10(fugacity). Fugacity = pressure * phi / 1 atm.
  For ideal gases, phi = 1.

Reaction step 4.

Using solution 1.	
Using reaction 1.	

Reaction 1.	

	  1.000e-03 moles of the following reaction have been added:

	                 Relative
	Reactant            moles

	CaCl2                1.00000

	                 Relative
	Element             moles
	Ca                   1.00000
	Cl                   2.00000

-----------------------------Solution composition------------------------------

	Elements           Molality       Moles

	Ca                4.000e-03   4.000e-03
	Cl                8.000e-03   8.000e-03

----------------------------Description of solution----------------------------

                                       pH  =   6.993      Charge balance
                                       pe  =   4.000      Adjusted to redox equilibrium
      Specific Conductance (µS/cm,  25°C)  = 955
                          Density (g/cm³)  =   0.99741
                               Volume (L)  =   1.00304
                        Activity of water  =   1.000
                 Ionic strength (mol/kgw)  =   1.200e-02
                       Mass of water (kg)  =   1.000e+00
                 Total alkalinity (eq/kg)  =   1.216e-09
                         Temperature (°C)  =  25.00
                  Electrical balance (eq)  =  -1.179e-09
 Percent error, 100*(Cat-|An|)/(Cat+|An|)  =  -0.00
                               Iterations  =   6
                         Gamma iterations  =   2
                      Osmotic coefficient  =   0.93118
                         Density of water  =   0.99704
                                  Total H  = 1.110124e+02
                                  Total O  = 5.550622e+01

----------------------------Distribution of species----------------------------

                                                    MacInnes  MacInnes
                                MacInnes       Log       Log       Log    mole V
   Species          Molality    Activity  Molality  Activity     Gamma    cm³/mol

   OH-             1.152e-07   9.949e-08    -6.939    -7.002    -0.064     -4.02
   H+              1.140e-07   1.017e-07    -6.943    -6.993    -0.049      0.00
   H2O             5.551e+01   9.998e-01     1.744    -0.000     0.000     18.07
Ca            4.000e-03
   Ca+2            4.000e-03   2.565e-03    -2.398    -2.591    -0.193    -17.90
Cl            8.000e-03
   Cl-             8.000e-03   7.145e-03    -2.097    -2.146    -0.049     18.15

------------------------------Saturation indices-------------------------------

  Phase               SI** log IAP   log K(298 K,   1 atm)

  H2O(g)           -1.50     -0.00    1.50  H2O
  Portlandite     -11.41    -16.60   -5.19  Ca(OH)2

**For a gas, SI = log10(fugacity). Fugacity = pressure * phi / 1 atm.
  For ideal gases, phi = 1.

Reaction step 5.

Using solution 1.	
Using reaction 1.	

Reaction 1.	

	  1.000e-03 moles of the following reaction have been added:

	                 Relative
	Reactant            moles

	CaCl2                1.00000

	                 Relative
	Element             moles
	Ca                   1.00000
	Cl                   2.00000

-----------------------------Solution composition------------------------------

	Elements           Molality       Moles

	Ca                5.000e-03   5.000e-03
	Cl                1.000e-02   1.000e-02

----------------------------Description of solution----------------------------

                                       pH  =   6.991      Charge balance
                                       pe  =   4.000      Adjusted to redox equilibrium
      Specific Conductance (µS/cm,  25°C)  = 1183
                          Density (g/cm³)  =   0.99750
                               Volume (L)  =   1.00306
                        Activity of water  =   1.000
                 Ionic strength (mol/kgw)  =   1.500e-02
                       Mass of water (kg)  =   1.000e+00
                 Total alkalinity (eq/kg)  =   1.216e-09
                         Temperature (°C)  =  25.00
                  Electrical balance (eq)  =  -1.171e-09
 Percent error, 100*(Cat-|An|)/(Cat+|An|)  =  -0.00
                               Iterations  =   6
                         Gamma iterations  =   2
                      Osmotic coefficient  =   0.92520
                         Density of water  =   0.99704
                                  Total H  = 1.110124e+02
                                  Total O  = 5.550622e+01

----------------------------Distribution of species----------------------------

                                                    MacInnes  MacInnes
                                MacInnes       Log       Log       Log    mole V
   Species          Molality    Activity  Molality  Activity     Gamma    cm³/mol

   OH-             1.168e-07   9.912e-08    -6.932    -7.004    -0.071     -4.01
   H+              1.156e-07   1.021e-07    -6.937    -6.991    -0.054      0.00
   H2O             5.551e+01   9.998e-01     1.744    -0.000     0.000     18.07
Ca            5.000e-03
   Ca+2            5.000e-03   3.071e-03    -2.301    -2.513    -0.212    -17.86
Cl            1.000e-02
   Cl-             1.000e-02   8.829e-03    -2.000    -2.054    -0.054     18.16

------------------------------Saturation indices-------------------------------

  Phase               SI** log IAP   log K(298 K,   1 atm)

  H2O(g)           -1.50     -0.00    1.50  H2O
  Portlandite     -11.33    -16.52   -5.19  Ca(OH)2

**For a gas, SI = log10(fugacity). Fugacity = pressure * phi / 1 atm.
  For ideal gases, phi = 1.

Reaction step 6.

Using solution 1.	
Using reaction 1.	

Reaction 1.	

	  1.000e-03 moles of the following reaction have been added:

	                 Relative
	Reactant            moles

	CaCl2                1.00000

	                 Relative
	Element             moles
	Ca                   1.00000
	Cl                   2.00000

-----------------------------Solution composition------------------------------

	Elements           Molality       Moles

	Ca                6.000e-03   6.000e-03
	Cl                1.200e-02   1.200e-02

----------------------------Description of solution----------------------------

                                       pH  =   6.990      Charge balance
                                       pe  =   4.000      Adjusted to redox equilibrium
      Specific Conductance (µS/cm,  25°C)  = 1409
                          Density (g/cm³)  =   0.99760
                               Volume (L)  =   1.00308
                        Activity of water  =   1.000
                 Ionic strength (mol/kgw)  =   1.800e-02
                       Mass of water (kg)  =   1.000e+00
                 Total alkalinity (eq/kg)  =   1.216e-09
                         Temperature (°C)  =  25.00
                  Electrical balance (eq)  =  -1.162e-09
 Percent error, 100*(Cat-|An|)/(Cat+|An|)  =  -0.00
                               Iterations  =   6
                         Gamma iterations  =   2
                      Osmotic coefficient  =   0.92012
                         Density of water  =   0.99704
                                  Total H  = 1.110124e+02
                                  Total O  = 5.550622e+01

----------------------------Distribution of species----------------------------

                                                    MacInnes  MacInnes
                                MacInnes       Log       Log       Log    mole V
   Species          Molality    Activity  Molality  Activity     Gamma    cm³/mol

   OH-             1.183e-07   9.877e-08    -6.927    -7.005    -0.078     -3.99
   H+              1.171e-07   1.024e-07    -6.931    -6.990    -0.058      0.00
   H2O             5.551e+01   9.997e-01     1.744    -0.000     0.000     18.07
Ca            6.000e-03
   Ca+2            6.000e-03   3.550e-03    -2.222    -2.450    -0.228    -17.83
Cl            1.200e-02
   Cl-             1.200e-02   1.049e-02    -1.921    -1.979    -0.058     18.17

------------------------------Saturation indices-------------------------------

  Phase               SI** log IAP   log K(298 K,   1 atm)

  H2O(g)           -1.50     -0.00    1.50  H2O
  Portlandite     -11.27    -16.46   -5.19  Ca(OH)2

**For a gas, SI = log10(fugacity). Fugacity = pressure * phi / 1 atm.
  For ideal gases, phi = 1.

Reaction step 7.

Using solution 1.	
Using reaction 1.	

Reaction 1.	

	  1.000e-03 moles of the following reaction have been added:

	                 Relative
	Reactant            moles

	CaCl2                1.00000

	                 Relative
	Element             moles
	Ca                   1.00000
	Cl                   2.00000

-----------------------------Solution composition------------------------------

	Elements           Molality       Moles

	Ca                7.000e-03   7.000e-03
	Cl                1.400e-02   1.400e-02

----------------------------Description of solution----------------------------

                                       pH  =   6.988      Charge balance
                                       pe  =   4.000      Adjusted to redox equilibrium
      Specific Conductance (µS/cm,  25°C)  = 1632
                          Density (g/cm³)  =   0.99769
                               Volume (L)  =   1.00310
                        Activity of water  =   1.000
                 Ionic strength (mol/kgw)  =   2.100e-02
                       Mass of water (kg)  =   1.000e+00
                 Total alkalinity (eq/kg)  =   1.216e-09
                         Temperature (°C)  =  25.00
                  Electrical balance (eq)  =  -1.152e-09
 Percent error, 100*(Cat-|An|)/(Cat+|An|)  =  -0.00
                               Iterations  =   6
                         Gamma iterations  =   2
                      Osmotic coefficient  =   0.91572
                         Density of water  =   0.99704
                                  Total H  = 1.110124e+02
                                  Total O  = 5.550622e+01

----------------------------Distribution of species----------------------------

                                                    MacInnes  MacInnes
                                MacInnes       Log       Log       Log    mole V
   Species          Molality    Activity  Molality  Activity     Gamma    cm³/mol

   OH-             1.197e-07   9.843e-08    -6.922    -7.007    -0.085     -3.98
   H+              1.185e-07   1.028e-07    -6.926    -6.988    -0.062      0.00
   H2O             5.551e+01   9.997e-01     1.744    -0.000     0.000     18.07
Ca            7.000e-03
   Ca+2            7.000e-03   4.008e-03    -2.155    -2.397    -0.242    -17.81
Cl            1.400e-02
   Cl-             1.400e-02   1.213e-02    -1.854    -1.916    -0.062     18.18

------------------------------Saturation indices-------------------------------

  Phase               SI** log IAP   log K(298 K,   1 atm)

  H2O(g)           -1.50     -0.00    1.50  H2O
  Portlandite     -11.22    -16.41   -5.19  Ca(OH)2

**For a gas, SI = log10(fugacity). Fugacity = pressure * phi / 1 atm.
  For ideal gases, phi = 1.

Reaction step 8.

Using solution 1.	
Using reaction 1.	

Reaction 1.	

	  1.000e-03 moles of the following reaction have been added:

	                 Relative
	Reactant            moles

	CaCl2                1.00000

	                 Relative
	Element             moles
	Ca                   1.00000
	Cl                   2.00000

-----------------------------Solution composition------------------------------

	Elements           Molality       Moles

	Ca                8.000e-03   8.000e-03
	Cl                1.600e-02   1.600e-02

----------------------------Description of solution----------------------------

                                       pH  =   6.987      Charge balance
                                       pe  =   4.000      Adjusted to redox equilibrium
      Specific Conductance (µS/cm,  25°C)  = 1854
                          Density (g/cm³)  =   0.99778
                               Volume (L)  =   1.00311
                        Activity of water  =   1.000
                 Ionic strength (mol/kgw)  =   2.400e-02
                       Mass of water (kg)  =   1.000e+00
                 Total alkalinity (eq/kg)  =   1.216e-09
                         Temperature (°C)  =  25.00
                  Electrical balance (eq)  =  -1.143e-09
 Percent error, 100*(Cat-|An|)/(Cat+|An|)  =  -0.00
                               Iterations  =   5
                         Gamma iterations  =   2
                      Osmotic coefficient  =   0.91184
                         Density of water  =   0.99704
                                  Total H  = 1.110124e+02
                                  Total O  = 5.550622e+01

----------------------------Distribution of species----------------------------

                                                    MacInnes  MacInnes
                                MacInnes       Log       Log       Log    mole V
   Species          Molality    Activity  Molality  Activity     Gamma    cm³/mol

   OH-             1.209e-07   9.810e-08    -6.918    -7.008    -0.091     -3.97
   H+              1.197e-07   1.031e-07    -6.922    -6.987    -0.065      0.00
   H2O             5.551e+01   9.996e-01     1.744    -0.000     0.000     18.07
Ca            8.000e-03
   Ca+2            8.000e-03   4.447e-03    -2.097    -2.352    -0.255    -17.78
Cl            1.600e-02
   Cl-             1.600e-02   1.374e-02    -1.796    -1.862    -0.066     18.19

------------------------------Saturation indices-------------------------------

  Phase               SI** log IAP   log K(298 K,   1 atm)

  H2O(g)           -1.50     -0.00    1.50  H2O
  Portlandite     -11.18    -16.37   -5.19  Ca(OH)2

**For a gas, SI = log10(fugacity). Fugacity = pressure * phi / 1 atm.
  For ideal gases, phi = 1.

Reaction step 9.

Using solution 1.	
Using reaction 1.	

Reaction 1.	

	  1.000e-03 moles of the following reaction have been added:

	                 Relative
	Reactant            moles

	CaCl2                1.00000

	                 Relative
	Element             moles
	Ca                   1.00000
	Cl                   2.00000

-----------------------------Solution composition------------------------------

	Elements           Molality       Moles

	Ca                9.000e-03   9.000e-03
	Cl                1.800e-02   1.800e-02

----------------------------Description of solution----------------------------

                                       pH  =   6.985      Charge balance
                                       pe  =   4.000      Adjusted to redox equilibrium
      Specific Conductance (µS/cm,  25°C)  = 2074
                          Density (g/cm³)  =   0.99787
                               Volume (L)  =   1.00313
                        Activity of water  =   1.000
                 Ionic strength (mol/kgw)  =   2.700e-02
                       Mass of water (kg)  =   1.000e+00
                 Total alkalinity (eq/kg)  =   1.216e-09
                         Temperature (°C)  =  25.00
                  Electrical balance (eq)  =  -1.133e-09
 Percent error, 100*(Cat-|An|)/(Cat+|An|)  =  -0.00
                               Iterations  =   5
                         Gamma iterations  =   2
                      Osmotic coefficient  =   0.90839
                         Density of water  =   0.99704
                                  Total H  = 1.110124e+02
                                  Total O  = 5.550622e+01

----------------------------Distribution of species----------------------------

                                                    MacInnes  MacInnes
                                MacInnes       Log       Log       Log    mole V
   Species          Molality    Activity  Molality  Activity     Gamma    cm³/mol

   OH-             1.221e-07   9.778e-08    -6.913    -7.010    -0.096     -3.95
   H+              1.209e-07   1.035e-07    -6.918    -6.985    -0.067      0.00
   H2O             5.551e+01   9.996e-01     1.744    -0.000     0.000     18.07
Ca            9.000e-03
   Ca+2            9.000e-03   4.870e-03    -2.046    -2.312    -0.267    -17.76
Cl            1.800e-02
   Cl-             1.800e-02   1.534e-02    -1.745    -1.814    -0.069     18.20

------------------------------Saturation indices-------------------------------

  Phase               SI** log IAP   log K(298 K,   1 atm)

  H2O(g)           -1.50     -0.00    1.50  H2O
  Portlandite     -11.14    -16.33   -5.19  Ca(OH)2

**For a gas, SI = log10(fugacity). Fugacity = pressure * phi / 1 atm.
  For ideal gases, phi = 1.

Reaction step 10.

Using solution 1.	
Using reaction 1.	

Reaction 1.	

	  1.000e-03 moles of the following reaction have been added:

	                 Relative
	Reactant            moles

	CaCl2                1.00000

	                 Relative
	Element             moles
	Ca                   1.00000
	Cl                   2.00000

-----------------------------Solution composition------------------------------

	Elements           Molality       Moles

	Ca                1.000e-02   1.000e-02
	Cl                2.000e-02   2.000e-02

----------------------------Description of solution----------------------------

                                       pH  =   6.984      Charge balance
                                       pe  =   4.000      Adjusted to redox equilibrium
      Specific Conductance (µS/cm,  25°C)  = 2293
                          Density (g/cm³)  =   0.99796
                               Volume (L)  =   1.00315
                        Activity of water  =   1.000
                 Ionic strength (mol/kgw)  =   3.000e-02
                       Mass of water (kg)  =   1.000e+00
                 Total alkalinity (eq/kg)  =   1.216e-09
                         Temperature (°C)  =  25.00
                  Electrical balance (eq)  =  -1.124e-09
 Percent error, 100*(Cat-|An|)/(Cat+|An|)  =  -0.00
                               Iterations  =   5
                         Gamma iterations  =   2
                      Osmotic coefficient  =   0.90528
                         Density of water  =   0.99704
                                  Total H  = 1.110124e+02
                                  Total O  = 5.550622e+01

----------------------------Distribution of species----------------------------

                                                    MacInnes  MacInnes
                                MacInnes       Log       Log       Log    mole V
   Species          Molality    Activity  Molality  Activity     Gamma    cm³/mol

   OH-             1.232e-07   9.747e-08    -6.909    -7.011    -0.102     -3.94
   H+              1.220e-07   1.038e-07    -6.914    -6.984    -0.070      0.00
   H2O             5.551e+01   9.995e-01     1.744    -0.000     0.000     18.07
Ca            1.000e-02
   Ca+2            1.000e-02   5.279e-03    -2.000    -2.277    -0.277    -17.74
Cl            2.000e-02
   Cl-             2.000e-02   1.693e-02    -1.699    -1.771    -0.072     18.21

------------------------------Saturation indices-------------------------------

  Phase               SI** log IAP   log K(298 K,   1 atm)

  H2O(g)           -1.50     -0.00    1.50  H2O
  Portlandite     -11.11    -16.30   -5.19  Ca(OH)2

**For a gas, SI = log10(fugacity). Fugacity = pressure * phi / 1 atm.
  For ideal gases, phi = 1.

Reaction step 11.

Using solution 1.	
Using reaction 1.	

Reaction 1.	

	  1.000e-02 moles of the following reaction have been added:

	                 Relative
	Reactant            moles

	CaCl2                1.00000

	                 Relative
	Element             moles
	Ca                   1.00000
	Cl                   2.00000

-----------------------------Solution composition------------------------------

	Elements           Molality       Moles

	Ca                2.000e-02   2.000e-02
	Cl                4.000e-02   4.000e-02

----------------------------Description of solution----------------------------

                                       pH  =   6.972      Charge balance
                                       pe  =   4.000      Adjusted to redox equilibrium
      Specific Conductance (µS/cm,  25°C)  = 4420
                          Density (g/cm³)  =   0.99888
                               Volume (L)  =   1.00335
                        Activity of water  =   0.999
                 Ionic strength (mol/kgw)  =   6.000e-02
                       Mass of water (kg)  =   1.000e+00
                 Total alkalinity (eq/kg)  =   1.216e-09
                         Temperature (°C)  =  25.00
                  Electrical balance (eq)  =  -1.124e-09
 Percent error, 100*(Cat-|An|)/(Cat+|An|)  =  -0.00
                               Iterations  =   8
                         Gamma iterations  =   3
                      Osmotic coefficient  =   0.88499
                         Density of water  =   0.99704
                                  Total H  = 1.110124e+02
                                  Total O  = 5.550622e+01

----------------------------Distribution of species----------------------------

                                                    MacInnes  MacInnes
                                MacInnes       Log       Log       Log    mole V
   Species          Molality    Activity  Molality  Activity     Gamma    cm³/mol

   OH-             1.317e-07   9.471e-08    -6.880    -7.024    -0.143     -3.84
   H+              1.305e-07   1.068e-07    -6.884    -6.972    -0.087      0.00
   H2O             5.551e+01   9.990e-01     1.744    -0.000     0.000     18.07
Ca            2.000e-02
   Ca+2            2.000e-02   8.869e-03    -1.699    -2.052    -0.353    -17.57
Cl            4.000e-02
   Cl-             4.000e-02   3.213e-02    -1.398    -1.493    -0.095     18.27

------------------------------Saturation indices-------------------------------

  Phase               SI** log IAP   log K(298 K,   1 atm)

  H2O(g)           -1.50     -0.00    1.50  H2O
  Portlandite     -10.91    -16.10   -5.19  Ca(OH)2

**For a gas, SI = log10(fugacity). Fugacity = pressure * phi / 1 atm.
  For ideal gases, phi = 1.

Reaction step 12.

Using solution 1.	
Using reaction 1.	

Reaction 1.	

	  1.000e-02 moles of the following reaction have been added:

	                 Relative
	Reactant            moles

	CaCl2                1.00000

	                 Relative
	Element             moles
	Ca                   1.00000
	Cl                   2.00000

-----------------------------Solution composition------------------------------

	Elements           Molality       Moles

	Ca                3.000e-02   3.000e-02
	Cl                6.000e-02   6.000e-02

----------------------------Description of solution----------------------------

                                       pH  =   6.961      Charge balance
                                       pe  =   4.000      Adjusted to redox equilibrium
      Specific Conductance (µS/cm,  25°C)  = 6469
                          Density (g/cm³)  =   0.99979
                               Volume (L)  =   1.00354
                        Activity of water  =   0.999
                 Ionic strength (mol/kgw)  =   9.000e-02
                       Mass of water (kg)  =   1.000e+00
                 Total alkalinity (eq/kg)  =   1.216e-09
                         Temperature (°C)  =  25.00
                  Electrical balance (eq)  =  -1.124e-09
 Percent error, 100*(Cat-|An|)/(Cat+|An|)  =  -0.00
                               Iterations  =   7
                         Gamma iterations  =   3
                      Osmotic coefficient  =   0.87413
                         Density of water  =   0.99704
                                  Total H  = 1.110124e+02
                                  Total O  = 5.550622e+01

----------------------------Distribution of species----------------------------

                                                    MacInnes  MacInnes
                                MacInnes       Log       Log       Log    mole V
   Species          Molality    Activity  Molality  Activity     Gamma    cm³/mol

   OH-             1.380e-07   9.233e-08    -6.860    -7.035    -0.175     -3.76
   H+              1.368e-07   1.095e-07    -6.864    -6.961    -0.097      0.00
   H2O             5.551e+01   9.986e-01     1.744    -0.001     0.000     18.07
Ca            3.000e-02
   Ca+2            3.000e-02   1.194e-02    -1.523    -1.923    -0.400    -17.46
Cl            6.000e-02
   Cl-             6.000e-02   4.652e-02    -1.222    -1.332    -0.110     18.32

------------------------------Saturation indices-------------------------------

  Phase               SI** log IAP   log K(298 K,   1 atm)

  H2O(g)           -1.50     -0.00    1.50  H2O
  Portlandite     -10.80    -15.99   -5.19  Ca(OH)2

**For a gas, SI = log10(fugacity). Fugacity = pressure * phi / 1 atm.
  For ideal gases, phi = 1.

Reaction step 13.

Using solution 1.	
Using reaction 1.	

Reaction 1.	

	  1.000e-02 moles of the following reaction have been added:

	                 Relative
	Reactant            moles

	CaCl2                1.00000

	                 Relative
	Element             moles
	Ca                   1.00000
	Cl                   2.00000

-----------------------------Solution composition------------------------------

	Elements           Molality       Moles

	Ca                4.000e-02   4.000e-02
	Cl                8.000e-02   8.000e-02

----------------------------Description of solution----------------------------

                                       pH  =   6.951      Charge balance
                                       pe  =   4.000      Adjusted to redox equilibrium
      Specific Conductance (µS/cm,  25°C)  = 8460
                          Density (g/cm³)  =   1.00070
                               Volume (L)  =   1.00374
                        Activity of water  =   0.998
                 Ionic strength (mol/kgw)  =   1.200e-01
                       Mass of water (kg)  =   1.000e+00
                 Total alkalinity (eq/kg)  =   1.216e-09
                         Temperature (°C)  =  25.00
                  Electrical balance (eq)  =  -1.124e-09
 Percent error, 100*(Cat-|An|)/(Cat+|An|)  =  -0.00
                               Iterations  =   7
                         Gamma iterations  =   3
                      Osmotic coefficient  =   0.86738
                         Density of water  =   0.99704
                                  Total H  = 1.110124e+02
                                  Total O  = 5.550622e+01

----------------------------Distribution of species----------------------------

                                                    MacInnes  MacInnes
                                MacInnes       Log       Log       Log    mole V
   Species          Molality    Activity  Molality  Activity     Gamma    cm³/mol

   OH-             1.432e-07   9.019e-08    -6.844    -7.045    -0.201     -3.68
   H+              1.420e-07   1.120e-07    -6.848    -6.951    -0.103      0.00
   H2O             5.551e+01   9.981e-01     1.744    -0.001     0.000     18.07
Ca            4.000e-02
   Ca+2            4.000e-02   1.472e-02    -1.398    -1.832    -0.434    -17.38
Cl            8.000e-02
   Cl-             8.000e-02   6.038e-02    -1.097    -1.219    -0.122     18.37

------------------------------Saturation indices-------------------------------

  Phase               SI** log IAP   log K(298 K,   1 atm)

  H2O(g)           -1.50     -0.00    1.50  H2O
  Portlandite     -10.73    -15.92   -5.19  Ca(OH)2

**For a gas, SI = log10(fugacity). Fugacity = pressure * phi / 1 atm.
  For ideal gases, phi = 1.

Reaction step 14.

Using solution 1.	
Using reaction 1.	

Reaction 1.	

	  1.000e-02 moles of the following reaction have been added:

	                 Relative
	Reactant            moles

	CaCl2                1.00000

	                 Relative
	Element             moles
	Ca                   1.00000
	Cl                   2.00000

-----------------------------Solution composition------------------------------

	Elements           Molality       Moles

	Ca                5.000e-02   5.000e-02
	Cl                1.000e-01   1.000e-01

----------------------------Description of solution----------------------------

                                       pH  =   6.941      Charge balance
                                       pe  =   4.000      Adjusted to redox equilibrium
      Specific Conductance (µS/cm,  25°C)  = 10404
                          Density (g/cm³)  =   1.00160
                               Volume (L)  =   1.00394
                        Activity of water  =   0.998
                 Ionic strength (mol/kgw)  =   1.500e-01
                       Mass of water (kg)  =   1.000e+00
                 Total alkalinity (eq/kg)  =   1.216e-09
                         Temperature (°C)  =  25.00
                  Electrical balance (eq)  =  -1.124e-09
 Percent error, 100*(Cat-|An|)/(Cat+|An|)  =  -0.00
                               Iterations  =   7
                         Gamma iterations  =   3
                      Osmotic coefficient  =   0.86292
                         Density of water  =   0.99704
                                  Total H  = 1.110124e+02
                                  Total O  = 5.550622e+01

----------------------------Distribution of species----------------------------

                                                    MacInnes  MacInnes
                                MacInnes       Log       Log       Log    mole V
   Species          Molality    Activity  Molality  Activity     Gamma    cm³/mol

   OH-             1.476e-07   8.822e-08    -6.831    -7.054    -0.224     -3.61
   H+              1.464e-07   1.145e-07    -6.834    -6.941    -0.107      0.00
   H2O             5.551e+01   9.977e-01     1.744    -0.001     0.000     18.07
Ca            5.000e-02
   Ca+2            5.000e-02   1.734e-02    -1.301    -1.761    -0.460    -17.31
Cl            1.000e-01
   Cl-             1.000e-01   7.383e-02    -1.000    -1.132    -0.132     18.40

------------------------------Saturation indices-------------------------------

  Phase               SI** log IAP   log K(298 K,   1 atm)

  H2O(g)           -1.50     -0.00    1.50  H2O
  Portlandite     -10.68    -15.87   -5.19  Ca(OH)2

**For a gas, SI = log10(fugacity). Fugacity = pressure * phi / 1 atm.
  For ideal gases, phi = 1.

Reaction step 15.

Using solution 1.	
Using reaction 1.	

Reaction 1.	

	  1.000e-02 moles of the following reaction have been added:

	                 Relative
	Reactant            moles

	CaCl2                1.00000

	                 Relative
	Element             moles
	Ca                   1.00000
	Cl                   2.00000

-----------------------------Solution composition------------------------------

	Elements           Molality       Moles

	Ca                6.000e-02   6.000e-02
	Cl                1.200e-01   1.200e-01

----------------------------Description of solution----------------------------

                                       pH  =   6.932      Charge balance
                                       pe  =   4.000      Adjusted to redox equilibrium
      Specific Conductance (µS/cm,  25°C)  = 12305
                          Density (g/cm³)  =   1.00251
                               Volume (L)  =   1.00414
                        Activity of water  =   0.997
                 Ionic strength (mol/kgw)  =   1.800e-01
                       Mass of water (kg)  =   1.000e+00
                 Total alkalinity (eq/kg)  =   1.216e-09
                         Temperature (°C)  =  25.00
                  Electrical balance (eq)  =  -1.124e-09
 Percent error, 100*(Cat-|An|)/(Cat+|An|)  =  -0.00
                               Iterations  =   7
                         Gamma iterations  =   3
                      Osmotic coefficient  =   0.85988
                         Density of water  =   0.99704
                                  Total H  = 1.110124e+02
                                  Total O  = 5.550622e+01

----------------------------Distribution of species----------------------------

                                                    MacInnes  MacInnes
                                MacInnes       Log       Log       Log    mole V
   Species          Molality    Activity  Molality  Activity     Gamma    cm³/mol

   OH-             1.516e-07   8.639e-08    -6.819    -7.064    -0.244     -3.54
   H+              1.504e-07   1.168e-07    -6.823    -6.932    -0.110      0.00
   H2O             5.551e+01   9.972e-01     1.744    -0.001     0.000     18.07
Ca            6.000e-02
   Ca+2            6.000e-02   1.983e-02    -1.222    -1.703    -0.481    -17.25
Cl            1.200e-01
   Cl-             1.200e-01   8.697e-02    -0.921    -1.061    -0.140     18.44

------------------------------Saturation indices-------------------------------

  Phase               SI** log IAP   log K(298 K,   1 atm)

  H2O(g)           -1.50     -0.00    1.50  H2O
  Portlandite     -10.64    -15.83   -5.19  Ca(OH)2

**For a gas, SI = log10(fugacity). Fugacity = pressure * phi / 1 atm.
  For ideal gases, phi = 1.

Reaction step 16.

Using solution 1.	
Using reaction 1.	

Reaction 1.	

	  1.000e-02 moles of the following reaction have been added:

	                 Relative
	Reactant            moles

	CaCl2                1.00000

	                 Relative
	Element             moles
	Ca                   1.00000
	Cl                   2.00000

-----------------------------Solution composition------------------------------

	Elements           Molality       Moles

	Ca                7.000e-02   7.000e-02
	Cl                1.400e-01   1.400e-01

----------------------------Description of solution----------------------------

                                       pH  =   6.924      Charge balance
                                       pe  =   4.000      Adjusted to redox equilibrium
      Specific Conductance (µS/cm,  25°C)  = 14169
                          Density (g/cm³)  =   1.00341
                               Volume (L)  =   1.00435
                        Activity of water  =   0.997
                 Ionic strength (mol/kgw)  =   2.100e-01
                       Mass of water (kg)  =   1.000e+00
                 Total alkalinity (eq/kg)  =   1.216e-09
                         Temperature (°C)  =  25.00
                  Electrical balance (eq)  =  -1.124e-09
 Percent error, 100*(Cat-|An|)/(Cat+|An|)  =  -0.00
                               Iterations  =   7
                         Gamma iterations  =   3
                      Osmotic coefficient  =   0.85781
                         Density of water  =   0.99704
                                  Total H  = 1.110124e+02
                                  Total O  = 5.550622e+01

----------------------------Distribution of species----------------------------

                                                    MacInnes  MacInnes
                                MacInnes       Log       Log       Log    mole V
   Species          Molality    Activity  Molality  Activity     Gamma    cm³/mol

   OH-             1.552e-07   8.467e-08    -6.809    -7.072    -0.263     -3.48
   H+              1.540e-07   1.192e-07    -6.813    -6.924    -0.111      0.00
   H2O             5.551e+01   9.968e-01     1.744    -0.001     0.000     18.07
Ca            7.000e-02
   Ca+2            7.000e-02   2.224e-02    -1.155    -1.653    -0.498    -17.19
Cl            1.400e-01
   Cl-             1.400e-01   9.985e-02    -0.854    -1.001    -0.147     18.47

------------------------------Saturation indices-------------------------------

  Phase               SI** log IAP   log K(298 K,   1 atm)

  H2O(g)           -1.50     -0.00    1.50  H2O
  Portlandite     -10.61    -15.80   -5.19  Ca(OH)2

**For a gas, SI = log10(fugacity). Fugacity = pressure * phi / 1 atm.
  For ideal gases, phi = 1.

Reaction step 17.

Using solution 1.	
Using reaction 1.	

Reaction 1.	

	  1.000e-02 moles of the following reaction have been added:

	                 Relative
	Reactant            moles

	CaCl2                1.00000

	                 Relative
	Element             moles
	Ca                   1.00000
	Cl                   2.00000

-----------------------------Solution composition------------------------------

	Elements           Molality       Moles

	Ca                8.000e-02   8.000e-02
	Cl                1.600e-01   1.600e-01

----------------------------Description of solution----------------------------

                                       pH  =   6.916      Charge balance
                                       pe  =   4.000      Adjusted to redox equilibrium
      Specific Conductance (µS/cm,  25°C)  = 15999
                          Density (g/cm³)  =   1.00431
                               Volume (L)  =   1.00455
                        Activity of water  =   0.996
                 Ionic strength (mol/kgw)  =   2.400e-01
                       Mass of water (kg)  =   1.000e+00
                 Total alkalinity (eq/kg)  =   1.216e-09
                         Temperature (°C)  =  25.00
                  Electrical balance (eq)  =  -1.124e-09
 Percent error, 100*(Cat-|An|)/(Cat+|An|)  =  -0.00
                               Iterations  =   6
                         Gamma iterations  =   3
                      Osmotic coefficient  =   0.85644
                         Density of water  =   0.99704
                                  Total H  = 1.110124e+02
                                  Total O  = 5.550622e+01

----------------------------Distribution of species----------------------------

                                                    MacInnes  MacInnes
                                MacInnes       Log       Log       Log    mole V
   Species          Molality    Activity  Molality  Activity     Gamma    cm³/mol

   OH-             1.585e-07   8.303e-08    -6.800    -7.081    -0.281     -3.41
   H+              1.573e-07   1.214e-07    -6.803    -6.916    -0.112      0.00
   H2O             5.551e+01   9.963e-01     1.744    -0.002     0.000     18.07
Ca            8.000e-02
   Ca+2            8.000e-02   2.459e-02    -1.097    -1.609    -0.512    -17.14
Cl            1.600e-01
   Cl-             1.600e-01   1.125e-01    -0.796    -0.949    -0.153     18.50

------------------------------Saturation indices-------------------------------

  Phase               SI** log IAP   log K(298 K,   1 atm)

  H2O(g)           -1.50     -0.00    1.50  H2O
  Portlandite     -10.58    -15.77   -5.19  Ca(OH)2

**For a gas, SI = log10(fugacity). Fugacity = pressure * phi / 1 atm.
  For ideal gases, phi = 1.

Reaction step 18.

Using solution 1.	
Using reaction 1.	

Reaction 1.	

	  1.000e-02 moles of the following reaction have been added:

	                 Relative
	Reactant            moles

	CaCl2                1.00000

	                 Relative
	Element             moles
	Ca                   1.00000
	Cl                   2.00000

-----------------------------Solution composition------------------------------

	Elements           Molality       Moles

	Ca                9.000e-02   9.000e-02
	Cl                1.800e-01   1.800e-01

----------------------------Description of solution----------------------------

                                       pH  =   6.908      Charge balance
                                       pe  =   4.000      Adjusted to redox equilibrium
      Specific Conductance (µS/cm,  25°C)  = 17797
                          Density (g/cm³)  =   1.00520
                               Volume (L)  =   1.00476
                        Activity of water  =   0.996
                 Ionic strength (mol/kgw)  =   2.700e-01
                       Mass of water (kg)  =   1.000e+00
                 Total alkalinity (eq/kg)  =   1.216e-09
                         Temperature (°C)  =  25.00
                  Electrical balance (eq)  =  -1.124e-09
 Percent error, 100*(Cat-|An|)/(Cat+|An|)  =  -0.00
                               Iterations  =   6
                         Gamma iterations  =   3
                      Osmotic coefficient  =   0.85558
                         Density of water  =   0.99704
                                  Total H  = 1.110124e+02
                                  Total O  = 5.550622e+01

----------------------------Distribution of species----------------------------

                                                    MacInnes  MacInnes
                                MacInnes       Log       Log       Log    mole V
   Species          Molality    Activity  Molality  Activity     Gamma    cm³/mol

   OH-             1.616e-07   8.148e-08    -6.792    -7.089    -0.297     -3.35
   H+              1.604e-07   1.237e-07    -6.795    -6.908    -0.113      0.00
   H2O             5.551e+01   9.958e-01     1.744    -0.002     0.000     18.07
Ca            9.000e-02
   Ca+2            9.000e-02   2.689e-02    -1.046    -1.570    -0.525    -17.10
Cl            1.800e-01
   Cl-             1.800e-01   1.250e-01    -0.745    -0.903    -0.158     18.52

------------------------------Saturation indices-------------------------------

  Phase               SI** log IAP   log K(298 K,   1 atm)

  H2O(g)           -1.50     -0.00    1.50  H2O
  Portlandite     -10.56    -15.75   -5.19  Ca(OH)2

**For a gas, SI = log10(fugacity). Fugacity = pressure * phi / 1 atm.
  For ideal gases, phi = 1.

Reaction step 19.

Using solution 1.	
Using reaction 1.	

Reaction 1.	

	  1.000e-02 moles of the following reaction have been added:

	                 Relative
	Reactant            moles

	CaCl2                1.00000

	                 Relative
	Element             moles
	Ca                   1.00000
	Cl                   2.00000

-----------------------------Solution composition------------------------------

	Elements           Molality       Moles

	Ca                1.000e-01   1.000e-01
	Cl                2.000e-01   2.000e-01

----------------------------Description of solution----------------------------

                                       pH  =   6.900      Charge balance
                                       pe  =   4.000      Adjusted to redox equilibrium
      Specific Conductance (µS/cm,  25°C)  = 19565
                          Density (g/cm³)  =   1.00610
                               Volume (L)  =   1.00497
                        Activity of water  =   0.995
                 Ionic strength (mol/kgw)  =   3.000e-01
                       Mass of water (kg)  =   1.000e+00
                 Total alkalinity (eq/kg)  =   1.216e-09
                         Temperature (°C)  =  25.00
                  Electrical balance (eq)  =  -1.124e-09
 Percent error, 100*(Cat-|An|)/(Cat+|An|)  =  -0.00
                               Iterations  =   6
                         Gamma iterations  =   3
                      Osmotic coefficient  =   0.85512
                         Density of water  =   0.99704
                                  Total H  = 1.110124e+02
                                  Total O  = 5.550622e+01

----------------------------Distribution of species----------------------------

                                                    MacInnes  MacInnes
                                MacInnes       Log       Log       Log    mole V
   Species          Molality    Activity  Molality  Activity     Gamma    cm³/mol

   OH-             1.645e-07   8.000e-08    -6.784    -7.097    -0.313     -3.29
   H+              1.633e-07   1.259e-07    -6.787    -6.900    -0.113      0.00
   H2O             5.551e+01   9.954e-01     1.744    -0.002     0.000     18.07
Ca            1.000e-01
   Ca+2            1.000e-01   2.916e-02    -1.000    -1.535    -0.535    -17.06
Cl            2.000e-01
   Cl-             2.000e-01   1.373e-01    -0.699    -0.862    -0.163     18.55

------------------------------Saturation indices-------------------------------

  Phase               SI** log IAP   log K(298 K,   1 atm)

  H2O(g)           -1.50     -0.00    1.50  H2O
  Portlandite     -10.54    -15.73   -5.19  Ca(OH)2

**For a gas, SI = log10(fugacity). Fugacity = pressure * phi / 1 atm.
  For ideal gases, phi = 1.

Reaction step 20.

Using solution 1.	
Using reaction 1.	

Reaction 1.	

	  1.000e-01 moles of the following reaction have been added:

	                 Relative
	Reactant            moles

	CaCl2                1.00000

	                 Relative
	Element             moles
	Ca                   1.00000
	Cl                   2.00000

-----------------------------Solution composition------------------------------

	Elements           Molality       Moles

	Ca                2.000e-01   2.000e-01
	Cl                4.000e-01   4.000e-01

----------------------------Description of solution----------------------------

                                       pH  =   6.831      Charge balance
                                       pe  =   4.000      Adjusted to redox equilibrium
      Specific Conductance (µS/cm,  25°C)  = 35875
                          Density (g/cm³)  =   1.01498
                               Volume (L)  =   1.00711
                        Activity of water  =   0.991
                 Ionic strength (mol/kgw)  =   6.000e-01
                       Mass of water (kg)  =   1.000e+00
                 Total alkalinity (eq/kg)  =   1.216e-09
                         Temperature (°C)  =  25.00
                  Electrical balance (eq)  =  -1.123e-09
 Percent error, 100*(Cat-|An|)/(Cat+|An|)  =  -0.00
                               Iterations  =   8
                         Gamma iterations  =   3
                      Osmotic coefficient  =   0.86135
                         Density of water  =   0.99704
                                  Total H  = 1.110124e+02
                                  Total O  = 5.550622e+01

----------------------------Distribution of species----------------------------

                                                    MacInnes  MacInnes
                                MacInnes       Log       Log       Log    mole V
   Species          Molality    Activity  Molality  Activity     Gamma    cm³/mol

   OH-             1.871e-07   6.788e-08    -6.728    -7.168    -0.440     -2.75
   H+              1.859e-07   1.477e-07    -6.731    -6.831    -0.100      0.00
   H2O             5.551e+01   9.907e-01     1.744    -0.004     0.000     18.07
Ca            2.000e-01
   Ca+2            2.000e-01   5.128e-02    -0.699    -1.290    -0.591    -16.75
Cl            4.000e-01
   Cl-             4.000e-01   2.547e-01    -0.398    -0.594    -0.196     18.75

------------------------------Saturation indices-------------------------------

  Phase               SI** log IAP   log K(298 K,   1 atm)

  H2O(g)           -1.51     -0.00    1.50  H2O
  Portlandite     -10.44    -15.63   -5.19  Ca(OH)2

**For a gas, SI = log10(fugacity). Fugacity = pressure * phi / 1 atm.
  For ideal gases, phi = 1.

Reaction step 21.

Using solution 1.	
Using reaction 1.	

Reaction 1.	

	  1.000e-01 moles of the following reaction have been added:

	                 Relative
	Reactant            moles

	CaCl2                1.00000

	                 Relative
	Element             moles
	Ca                   1.00000
	Cl                   2.00000

-----------------------------Solution composition------------------------------

	Elements           Molality       Moles

	Ca                3.000e-01   3.000e-01
	Cl                6.000e-01   6.000e-01

----------------------------Description of solution----------------------------

                                       pH  =   6.770      Charge balance
                                       pe  =   4.000      Adjusted to redox equilibrium
      Specific Conductance (µS/cm,  25°C)  = 50210
                          Density (g/cm³)  =   1.02373
                               Volume (L)  =   1.00935
                        Activity of water  =   0.986
                 Ionic strength (mol/kgw)  =   9.000e-01
                       Mass of water (kg)  =   1.000e+00
                 Total alkalinity (eq/kg)  =   1.216e-09
                         Temperature (°C)  =  25.00
                  Electrical balance (eq)  =  -1.123e-09
 Percent error, 100*(Cat-|An|)/(Cat+|An|)  =  -0.00
                               Iterations  =   7
                         Gamma iterations  =   3
                      Osmotic coefficient  =   0.87586
                         Density of water  =   0.99704
                                  Total H  = 1.110124e+02
                                  Total O  = 5.550622e+01

----------------------------Distribution of species----------------------------

                                                    MacInnes  MacInnes
                                MacInnes       Log       Log       Log    mole V
   Species          Molality    Activity  Molality  Activity     Gamma    cm³/mol

   OH-             2.036e-07   5.877e-08    -6.691    -7.231    -0.540     -2.26
   H+              2.024e-07   1.698e-07    -6.694    -6.770    -0.076      0.00
   H2O             5.551e+01   9.859e-01     1.744    -0.006     0.000     18.07
Ca            3.000e-01
   Ca+2            3.000e-01   7.440e-02    -0.523    -1.128    -0.606    -16.53
Cl            6.000e-01
   Cl-             6.000e-01   3.663e-01    -0.222    -0.436    -0.214     18.90

------------------------------Saturation indices-------------------------------

  Phase               SI** log IAP   log K(298 K,   1 atm)

  H2O(g)           -1.51     -0.01    1.50  H2O
  Portlandite     -10.40    -15.59   -5.19  Ca(OH)2

**For a gas, SI = log10(fugacity). Fugacity = pressure * phi / 1 atm.
  For ideal gases, phi = 1.

Reaction step 22.

Using solution 1.	
Using reaction 1.	

Reaction 1.	

	  1.000e-01 moles of the following reaction have been added:

	                 Relative
	Reactant            moles

	CaCl2                1.00000

	                 Relative
	Element             moles
	Ca                   1.00000
	Cl                   2.00000

-----------------------------Solution composition------------------------------

	Elements           Molality       Moles

	Ca                4.000e-01   4.000e-01
	Cl                8.000e-01   8.000e-01

----------------------------Description of solution----------------------------

                                       pH  =   6.714      Charge balance
                                       pe  =   4.000      Adjusted to redox equilibrium
      Specific Conductance (µS/cm,  25°C)  = 63002
                          Density (g/cm³)  =   1.03237
                               Volume (L)  =   1.01165
                        Activity of water  =   0.981
                 Ionic strength (mol/kgw)  =   1.200e+00
                       Mass of water (kg)  =   1.000e+00
                 Total alkalinity (eq/kg)  =   1.216e-09
                         Temperature (°C)  =  25.00
                  Electrical balance (eq)  =  -1.124e-09
 Percent error, 100*(Cat-|An|)/(Cat+|An|)  =  -0.00
                               Iterations  =   7
                         Gamma iterations  =   3
                      Osmotic coefficient  =   0.89423
                         Density of water  =   0.99704
                                  Total H  = 1.110124e+02
                                  Total O  = 5.550622e+01

----------------------------Distribution of species----------------------------

                                                    MacInnes  MacInnes
                                MacInnes       Log       Log       Log    mole V
   Species          Molality    Activity  Molality  Activity     Gamma    cm³/mol

   OH-             2.168e-07   5.143e-08    -6.664    -7.289    -0.625     -1.80
   H+              2.156e-07   1.931e-07    -6.666    -6.714    -0.048      0.00
   H2O             5.551e+01   9.809e-01     1.744    -0.008     0.000     18.07
Ca            4.000e-01
   Ca+2            4.000e-01   1.001e-01    -0.398    -1.000    -0.602    -16.35
Cl            8.000e-01
   Cl-             8.000e-01   4.755e-01    -0.097    -0.323    -0.226     19.03

------------------------------Saturation indices-------------------------------

  Phase               SI** log IAP   log K(298 K,   1 atm)

  H2O(g)           -1.51     -0.01    1.50  H2O
  Portlandite     -10.39    -15.58   -5.19  Ca(OH)2

**For a gas, SI = log10(fugacity). Fugacity = pressure * phi / 1 atm.
  For ideal gases, phi = 1.

Reaction step 23.

Using solution 1.	
Using reaction 1.	

Reaction 1.	

	  1.000e-01 moles of the following reaction have been added:

	                 Relative
	Reactant            moles

	CaCl2                1.00000

	                 Relative
	Element             moles
	Ca                   1.00000
	Cl                   2.00000

-----------------------------Solution composition------------------------------

	Elements           Molality       Moles

	Ca                5.000e-01   5.000e-01
	Cl                1.000e+00   1.000e+00

----------------------------Description of solution----------------------------

                                       pH  =   6.661      Charge balance
                                       pe  =   4.000      Adjusted to redox equilibrium
      Specific Conductance (µS/cm,  25°C)  = 74518
                          Density (g/cm³)  =   1.04091
                               Volume (L)  =   1.01401
                        Activity of water  =   0.976
                 Ionic strength (mol/kgw)  =   1.500e+00
                       Mass of water (kg)  =   1.000e+00
                 Total alkalinity (eq/kg)  =   1.216e-09
                         Temperature (°C)  =  25.00
                  Electrical balance (eq)  =  -1.124e-09
 Percent error, 100*(Cat-|An|)/(Cat+|An|)  =  -0.00
                               Iterations  =   7
                         Gamma iterations  =   3
                      Osmotic coefficient  =   0.91531
                         Density of water  =   0.99704
                                  Total H  = 1.110124e+02
                                  Total O  = 5.550622e+01

----------------------------Distribution of species----------------------------

                                                    MacInnes  MacInnes
                                MacInnes       Log       Log       Log    mole V
   Species          Molality    Activity  Molality  Activity     Gamma    cm³/mol

   OH-             2.278e-07   4.529e-08    -6.642    -7.344    -0.702     -1.35
   H+              2.266e-07   2.180e-07    -6.645    -6.661    -0.017      0.00
   H2O             5.551e+01   9.756e-01     1.744    -0.011     0.000     18.07
Ca            5.000e-01
   Ca+2            5.000e-01   1.296e-01    -0.301    -0.887    -0.586    -16.19
Cl            1.000e+00
   Cl-             1.000e+00   5.838e-01     0.000    -0.234    -0.234     19.14

------------------------------Saturation indices-------------------------------

  Phase               SI** log IAP   log K(298 K,   1 atm)

  H2O(g)           -1.51     -0.01    1.50  H2O
  Portlandite     -10.39    -15.58   -5.19  Ca(OH)2

**For a gas, SI = log10(fugacity). Fugacity = pressure * phi / 1 atm.
  For ideal gases, phi = 1.

Reaction step 24.

Using solution 1.	
Using reaction 1.	

Reaction 1.	

	  1.000e-01 moles of the following reaction have been added:

	                 Relative
	Reactant            moles

	CaCl2                1.00000

	                 Relative
	Element             moles
	Ca                   1.00000
	Cl                   2.00000

-----------------------------Solution composition------------------------------

	Elements           Molality       Moles

	Ca                6.000e-01   6.000e-01
	Cl                1.200e+00   1.200e+00

----------------------------Description of solution----------------------------

                                       pH  =   6.611      Charge balance
                                       pe  =   4.000      Adjusted to redox equilibrium
      Specific Conductance (µS/cm,  25°C)  = 84944
                          Density (g/cm³)  =   1.04936
                               Volume (L)  =   1.01643
                        Activity of water  =   0.970
                 Ionic strength (mol/kgw)  =   1.800e+00
                       Mass of water (kg)  =   1.000e+00
                 Total alkalinity (eq/kg)  =   1.216e-09
                         Temperature (°C)  =  25.00
                  Electrical balance (eq)  =  -1.123e-09
 Percent error, 100*(Cat-|An|)/(Cat+|An|)  =  -0.00
                               Iterations  =   7
                         Gamma iterations  =   3
                      Osmotic coefficient  =   0.93860
                         Density of water  =   0.99704
                                  Total H  = 1.110124e+02
                                  Total O  = 5.550622e+01

----------------------------Distribution of species----------------------------

                                                    MacInnes  MacInnes
                                MacInnes       Log       Log       Log    mole V
   Species          Molality    Activity  Molality  Activity     Gamma    cm³/mol

   OH-             2.373e-07   4.005e-08    -6.625    -7.397    -0.773     -0.91
   H+              2.361e-07   2.452e-07    -6.627    -6.611     0.016      0.00
   H2O             5.551e+01   9.700e-01     1.744    -0.013     0.000     18.07
Ca            6.000e-01
   Ca+2            6.000e-01   1.640e-01    -0.222    -0.785    -0.563    -16.03
Cl            1.200e+00
   Cl-             1.200e+00   6.923e-01     0.079    -0.160    -0.239     19.23

------------------------------Saturation indices-------------------------------

  Phase               SI** log IAP   log K(298 K,   1 atm)

  H2O(g)           -1.52     -0.01    1.50  H2O
  Portlandite     -10.39    -15.58   -5.19  Ca(OH)2

**For a gas, SI = log10(fugacity). Fugacity = pressure * phi / 1 atm.
  For ideal gases, phi = 1.

Reaction step 25.

Using solution 1.	
Using reaction 1.	

Reaction 1.	

	  1.000e-01 moles of the following reaction have been added:

	                 Relative
	Reactant            moles

	CaCl2                1.00000

	                 Relative
	Element             moles
	Ca                   1.00000
	Cl                   2.00000

-----------------------------Solution composition------------------------------

	Elements           Molality       Moles

	Ca                7.000e-01   7.000e-01
	Cl                1.400e+00   1.400e+00

----------------------------Description of solution----------------------------

                                       pH  =   6.561      Charge balance
                                       pe  =   4.000      Adjusted to redox equilibrium
      Specific Conductance (µS/cm,  25°C)  = 94425
                          Density (g/cm³)  =   1.05771
                               Volume (L)  =   1.01889
                        Activity of water  =   0.964
                 Ionic strength (mol/kgw)  =   2.100e+00
                       Mass of water (kg)  =   1.000e+00
                 Total alkalinity (eq/kg)  =   1.216e-09
                         Temperature (°C)  =  25.00
                  Electrical balance (eq)  =  -1.123e-09
 Percent error, 100*(Cat-|An|)/(Cat+|An|)  =  -0.00
                               Iterations  =   7
                         Gamma iterations  =   3
                      Osmotic coefficient  =   0.96377
                         Density of water  =   0.99704
                                  Total H  = 1.110124e+02
                                  Total O  = 5.550622e+01

----------------------------Distribution of species----------------------------

                                                    MacInnes  MacInnes
                                MacInnes       Log       Log       Log    mole V
   Species          Molality    Activity  Molality  Activity     Gamma    cm³/mol

   OH-             2.456e-07   3.550e-08    -6.610    -7.450    -0.840     -0.48
   H+              2.444e-07   2.749e-07    -6.612    -6.561     0.051      0.00
   H2O             5.551e+01   9.642e-01     1.744    -0.016     0.000     18.07
Ca            7.000e-01
   Ca+2            7.000e-01   2.048e-01    -0.155    -0.689    -0.534    -15.89
Cl            1.400e+00
   Cl-             1.400e+00   8.016e-01     0.146    -0.096    -0.242     19.32

------------------------------Saturation indices-------------------------------

  Phase               SI** log IAP   log K(298 K,   1 atm)

  H2O(g)           -1.52     -0.02    1.50  H2O
  Portlandite     -10.40    -15.59   -5.19  Ca(OH)2

**For a gas, SI = log10(fugacity). Fugacity = pressure * phi / 1 atm.
  For ideal gases, phi = 1.

Reaction step 26.

Using solution 1.	
Using reaction 1.	

Reaction 1.	

	  1.000e-01 moles of the following reaction have been added:

	                 Relative
	Reactant            moles

	CaCl2                1.00000

	                 Relative
	Element             moles
	Ca                   1.00000
	Cl                   2.00000

-----------------------------Solution composition------------------------------

	Elements           Molality       Moles

	Ca                8.000e-01   8.000e-01
	Cl                1.600e+00   1.600e+00

----------------------------Description of solution----------------------------

                                       pH  =   6.512      Charge balance
                                       pe  =   4.000      Adjusted to redox equilibrium
      Specific Conductance (µS/cm,  25°C)  = 103074
                          Density (g/cm³)  =   1.06597
                               Volume (L)  =   1.02141
                        Activity of water  =   0.958
                 Ionic strength (mol/kgw)  =   2.400e+00
                       Mass of water (kg)  =   1.000e+00
                 Total alkalinity (eq/kg)  =   1.216e-09
                         Temperature (°C)  =  25.00
                  Electrical balance (eq)  =  -1.121e-09
 Percent error, 100*(Cat-|An|)/(Cat+|An|)  =  -0.00
                               Iterations  =   6
                         Gamma iterations  =   3
                      Osmotic coefficient  =   0.99058
                         Density of water  =   0.99704
                                  Total H  = 1.110124e+02
                                  Total O  = 5.550622e+01

----------------------------Distribution of species----------------------------

                                                    MacInnes  MacInnes
                                MacInnes       Log       Log       Log    mole V
   Species          Molality    Activity  Molality  Activity     Gamma    cm³/mol

   OH-             2.530e-07   3.153e-08    -6.597    -7.501    -0.904     -0.06
   H+              2.518e-07   3.076e-07    -6.599    -6.512     0.087      0.00
   H2O             5.551e+01   9.581e-01     1.744    -0.019     0.000     18.07
Ca            8.000e-01
   Ca+2            8.000e-01   2.533e-01    -0.097    -0.596    -0.499    -15.75
Cl            1.600e+00
   Cl-             1.600e+00   9.124e-01     0.204    -0.040    -0.244     19.40

------------------------------Saturation indices-------------------------------

  Phase               SI** log IAP   log K(298 K,   1 atm)

  H2O(g)           -1.52     -0.02    1.50  H2O
  Portlandite     -10.41    -15.60   -5.19  Ca(OH)2

**For a gas, SI = log10(fugacity). Fugacity = pressure * phi / 1 atm.
  For ideal gases, phi = 1.

Reaction step 27.

Using solution 1.	
Using reaction 1.	

Reaction 1.	

	  1.000e-01 moles of the following reaction have been added:

	                 Relative
	Reactant            moles

	CaCl2                1.00000

	                 Relative
	Element             moles
	Ca                   1.00000
	Cl                   2.00000

-----------------------------Solution composition------------------------------

	Elements           Molality       Moles

	Ca                9.000e-01   9.000e-01
	Cl                1.800e+00   1.800e+00

----------------------------Description of solution----------------------------

                                       pH  =   6.464      Charge balance
                                       pe  =   4.000      Adjusted to redox equilibrium
      Specific Conductance (µS/cm,  25°C)  = 110983
                          Density (g/cm³)  =   1.07414
                               Volume (L)  =   1.02397
                        Activity of water  =   0.952
                 Ionic strength (mol/kgw)  =   2.700e+00
                       Mass of water (kg)  =   1.000e+00
                 Total alkalinity (eq/kg)  =   1.216e-09
                         Temperature (°C)  =  25.00
                  Electrical balance (eq)  =  -1.119e-09
 Percent error, 100*(Cat-|An|)/(Cat+|An|)  =  -0.00
                               Iterations  =   6
                         Gamma iterations  =   3
                      Osmotic coefficient  =   1.01882
                         Density of water  =   0.99704
                                  Total H  = 1.110124e+02
                                  Total O  = 5.550622e+01

----------------------------Distribution of species----------------------------

                                                    MacInnes  MacInnes
                                MacInnes       Log       Log       Log    mole V
   Species          Molality    Activity  Molality  Activity     Gamma    cm³/mol

   OH-             2.595e-07   2.803e-08    -6.586    -7.552    -0.967      0.36
   H+              2.583e-07   3.436e-07    -6.588    -6.464     0.124      0.00
   H2O             5.551e+01   9.517e-01     1.744    -0.022     0.000     18.07
Ca            9.000e-01
   Ca+2            9.000e-01   3.116e-01    -0.046    -0.506    -0.461    -15.62
Cl            1.800e+00
   Cl-             1.800e+00   1.025e+00     0.255     0.011    -0.245     19.48

------------------------------Saturation indices-------------------------------

  Phase               SI** log IAP   log K(298 K,   1 atm)

  H2O(g)           -1.52     -0.02    1.50  H2O
  Portlandite     -10.42    -15.61   -5.19  Ca(OH)2

**For a gas, SI = log10(fugacity). Fugacity = pressure * phi / 1 atm.
  For ideal gases, phi = 1.

Reaction step 28.

Using solution 1.	
Using reaction 1.	

Reaction 1.	

	  1.000e-01 moles of the following reaction have been added:

	                 Relative
	Reactant            moles

	CaCl2                1.00000

	                 Relative
	Element             moles
	Ca                   1.00000
	Cl                   2.00000

-----------------------------Solution composition------------------------------

	Elements           Molality       Moles

	Ca                1.000e+00   1.000e+00
	Cl                2.000e+00   2.000e+00

----------------------------Description of solution----------------------------

                                       pH  =   6.416      Charge balance
                                       pe  =   4.000      Adjusted to redox equilibrium
      Specific Conductance (µS/cm,  25°C)  = 118230
                          Density (g/cm³)  =   1.08222
                               Volume (L)  =   1.02658
                        Activity of water  =   0.945
                 Ionic strength (mol/kgw)  =   3.000e+00
                       Mass of water (kg)  =   1.000e+00
                 Total alkalinity (eq/kg)  =   1.216e-09
                         Temperature (°C)  =  25.00
                  Electrical balance (eq)  =  -1.116e-09
 Percent error, 100*(Cat-|An|)/(Cat+|An|)  =  -0.00
                               Iterations  =   6
                         Gamma iterations  =   3
                      Osmotic coefficient  =   1.04833
                         Density of water  =   0.99704
                                  Total H  = 1.110124e+02
                                  Total O  = 5.550622e+01

[...]

------------------------------Saturation indices-------------------------------

  Phase               SI** log IAP   log K(298 K,   1 atm)

  H2O(g)           -1.54     -0.03    1.50  H2O
  Halite           -1.26      0.32    1.58  NaCl

**For a gas, SI = log10(fugacity). Fugacity = pressure * phi / 1 atm.
  For ideal gases, phi = 1.

Reaction step 32.

Using solution 1.	
Using reaction 1.	

Reaction 1.	

	  1.100e+00 moles of the following reaction have been added:

	                 Relative
	Reactant            moles

	Na0.5Cl0.5           1.00000

	                 Relative
	Element             moles
	Cl                   0.50000
	Na                   0.50000

-----------------------------Solution composition------------------------------

	Elements           Molality       Moles

	Cl                2.700e+00   2.700e+00
	Na                2.700e+00   2.700e+00

----------------------------Description of solution----------------------------

                                       pH  =   6.720      Charge balance
                                       pe  =   4.000      Adjusted to redox equilibrium
      Specific Conductance (µS/cm,  25°C)  = 173994
                          Density (g/cm³)  =   1.09578
                               Volume (L)  =   1.05660
                        Activity of water  =   0.905
                 Ionic strength (mol/kgw)  =   2.700e+00
                       Mass of water (kg)  =   1.000e+00
                 Total alkalinity (eq/kg)  =   1.216e-09
                         Temperature (°C)  =  25.00
                  Electrical balance (eq)  =  -1.090e-09
 Percent error, 100*(Cat-|An|)/(Cat+|An|)  =  -0.00
                               Iterations  =   7
                         Gamma iterations  =   3
                      Osmotic coefficient  =   1.02572
                         Density of water  =   0.99704
                                  Total H  = 1.110124e+02
                                  Total O  = 5.550622e+01

----------------------------Distribution of species----------------------------

                                                    MacInnes  MacInnes
                                MacInnes       Log       Log       Log    mole V
   Species          Molality    Activity  Molality  Activity     Gamma    cm³/mol

   OH-             1.088e-07   4.813e-08    -6.963    -7.318    -0.354      0.36
   H+              1.076e-07   1.903e-07    -6.968    -6.720     0.248      0.00
   H2O             5.551e+01   9.050e-01     1.744    -0.043     0.000     18.07
Cl            2.700e+00
   Cl-             2.700e+00   1.537e+00     0.431     0.187    -0.245     19.48
Na            2.700e+00
   Na+             2.700e+00   2.309e+00     0.431     0.363    -0.068      0.39

------------------------------Saturation indices-------------------------------

  Phase               SI** log IAP   log K(298 K,   1 atm)

  H2O(g)           -1.55     -0.04    1.50  H2O
  Halite           -1.03      0.55    1.58  NaCl

**For a gas, SI = log10(fugacity). Fugacity = pressure * phi / 1 atm.
  For ideal gases, phi = 1.

Reaction step 33.

Using solution 1.	
Using reaction 1.	

Reaction 1.	

	  1.100e+00 moles of the following reaction have been added:

	                 Relative
	Reactant            moles

	Na0.5Cl0.5           1.00000

	                 Relative
	Element             moles
	Cl                   0.50000
	Na                   0.50000

-----------------------------Solution composition------------------------------

	Elements           Molality       Moles

	Cl                3.250e+00   3.250e+00
	Na                3.250e+00   3.250e+00

----------------------------Description of solution----------------------------

                                       pH  =   6.667      Charge balance
                                       pe  =   4.000      Adjusted to redox equilibrium
      Specific Conductance (µS/cm,  25°C)  = 196015
                          Density (g/cm³)  =   1.11367
                               Volume (L)  =   1.06849
                        Activity of water  =   0.883
                 Ionic strength (mol/kgw)  =   3.250e+00
                       Mass of water (kg)  =   1.000e+00
                 Total alkalinity (eq/kg)  =   1.216e-09
                         Temperature (°C)  =  25.00
                  Electrical balance (eq)  =  -8.530e-10
 Percent error, 100*(Cat-|An|)/(Cat+|An|)  =  -0.00
                               Iterations  =   7
                         Gamma iterations  =   3
                      Osmotic coefficient  =   1.06185
                         Density of water  =   0.99704
                                  Total H  = 1.110124e+02
                                  Total O  = 5.550622e+01

----------------------------Distribution of species----------------------------

                                                    MacInnes  MacInnes
                                MacInnes       Log       Log       Log    mole V
   Species          Molality    Activity  Molality  Activity     Gamma    cm³/mol

   OH-             9.871e-08   4.148e-08    -7.006    -7.382    -0.377      1.11
   H+              9.750e-08   2.155e-07    -7.011    -6.667     0.344      0.00
   H2O             5.551e+01   8.831e-01     1.744    -0.054     0.000     18.07
Cl            3.250e+00
   Cl-             3.250e+00   1.856e+00     0.512     0.268    -0.243     19.60
Na            3.250e+00
   Na+             3.250e+00   3.027e+00     0.512     0.481    -0.031      0.56

------------------------------Saturation indices-------------------------------

  Phase               SI** log IAP   log K(298 K,   1 atm)

  H2O(g)           -1.56     -0.05    1.50  H2O
  Halite           -0.83      0.75    1.58  NaCl

**For a gas, SI = log10(fugacity). Fugacity = pressure * phi / 1 atm.
  For ideal gases, phi = 1.

Reaction step 34.

Using solution 1.	
Using reaction 1.	

Reaction 1.	

	  1.100e+00 moles of the following reaction have been added:

	                 Relative
	Reactant            moles

	Na0.5Cl0.5           1.00000

	                 Relative
	Element             moles
	Cl                   0.50000
	Na                   0.50000

-----------------------------Solution composition------------------------------

	Elements           Molality       Moles

	Cl                3.800e+00   3.800e+00
	Na                3.800e+00   3.800e+00

----------------------------Description of solution----------------------------

                                       pH  =   6.613      Charge balance
                                       pe  =   4.000      Adjusted to redox equilibrium
      Specific Conductance (µS/cm,  25°C)  = 215394
                          Density (g/cm³)  =   1.13092
                               Volume (L)  =   1.08061
                        Activity of water  =   0.860
                 Ionic strength (mol/kgw)  =   3.800e+00
                       Mass of water (kg)  =   1.000e+00
                 Total alkalinity (eq/kg)  =   1.216e-09
                         Temperature (°C)  =  25.00
                  Electrical balance (eq)  =  -4.132e-10
 Percent error, 100*(Cat-|An|)/(Cat+|An|)  =  -0.00
                               Iterations  =   7
                         Gamma iterations  =   3
                      Osmotic coefficient  =   1.10047
                         Density of water  =   0.99704
                                  Total H  = 1.110124e+02
                                  Total O  = 5.550622e+01

----------------------------Distribution of species----------------------------

                                                    MacInnes  MacInnes
                                MacInnes       Log       Log       Log    mole V
   Species          Molality    Activity  Molality  Activity     Gamma    cm³/mol

   OH-             8.904e-08   3.568e-08    -7.050    -7.448    -0.397      1.84
   H+              8.782e-08   2.440e-07    -7.056    -6.613     0.444      0.00
   H2O             5.551e+01   8.601e-01     1.744    -0.065     0.000     18.07
Cl            3.800e+00
   Cl-             3.800e+00   2.187e+00     0.580     0.340    -0.240     19.72
Na            3.800e+00
   Na+             3.800e+00   3.890e+00     0.580     0.590     0.010      0.71

------------------------------Saturation indices-------------------------------

  Phase               SI** log IAP   log K(298 K,   1 atm)

  H2O(g)           -1.57     -0.07    1.50  H2O
  Halite           -0.65      0.93    1.58  NaCl

**For a gas, SI = log10(fugacity). Fugacity = pressure * phi / 1 atm.
  For ideal gases, phi = 1.

Reaction step 35.

Using solution 1.	
Using reaction 1.	

Reaction 1.	

	  1.100e+00 moles of the following reaction have been added:

	                 Relative
	Reactant            moles

	Na0.5Cl0.5           1.00000

	                 Relative
	Element             moles
	Cl                   0.50000
	Na                   0.50000

-----------------------------Solution composition------------------------------

	Elements           Molality       Moles

	Cl                4.350e+00   4.350e+00
	Na                4.350e+00   4.350e+00

----------------------------Description of solution----------------------------

                                       pH  =   6.559      Charge balance
                                       pe  =   4.000      Adjusted to redox equilibrium
      Specific Conductance (µS/cm,  25°C)  = 232507
                          Density (g/cm³)  =   1.14757
                               Volume (L)  =   1.09294
                        Activity of water  =   0.836
                 Ionic strength (mol/kgw)  =   4.350e+00
                       Mass of water (kg)  =   1.000e+00
                 Total alkalinity (eq/kg)  =   1.216e-09
                         Temperature (°C)  =  25.00
                  Electrical balance (eq)  =  -4.131e-10
 Percent error, 100*(Cat-|An|)/(Cat+|An|)  =  -0.00
                               Iterations  =   7
                         Gamma iterations  =   4
                      Osmotic coefficient  =   1.14124
                         Density of water  =   0.99704
                                  Total H  = 1.110124e+02
                                  Total O  = 5.550622e+01

----------------------------Distribution of species----------------------------

                                                    MacInnes  MacInnes
                                MacInnes       Log       Log       Log    mole V
   Species          Molality    Activity  Molality  Activity     Gamma    cm³/mol

   OH-             7.997e-08   3.063e-08    -7.097    -7.514    -0.417      2.57
   H+              7.875e-08   2.764e-07    -7.104    -6.559     0.545      0.00
   H2O             5.551e+01   8.362e-01     1.744    -0.078     0.000     18.07
Cl            4.350e+00
   Cl-             4.350e+00   2.533e+00     0.638     0.404    -0.235     19.82
Na            4.350e+00
   Na+             4.350e+00   4.933e+00     0.638     0.693     0.055      0.86

------------------------------Saturation indices-------------------------------

  Phase               SI** log IAP   log K(298 K,   1 atm)

  H2O(g)           -1.58     -0.08    1.50  H2O
  Halite           -0.48      1.10    1.58  NaCl

**For a gas, SI = log10(fugacity). Fugacity = pressure * phi / 1 atm.
  For ideal gases, phi = 1.

Reaction step 36.

Using solution 1.	
Using reaction 1.	

Reaction 1.	

	  1.100e+00 moles of the following reaction have been added:

	                 Relative
	Reactant            moles

	Na0.5Cl0.5           1.00000

	                 Relative
	Element             moles
	Cl                   0.50000
	Na                   0.50000

-----------------------------Solution composition------------------------------

	Elements           Molality       Moles

	Cl                4.900e+00   4.900e+00
	Na                4.900e+00   4.900e+00

----------------------------Description of solution----------------------------

                                       pH  =   6.504      Charge balance
                                       pe  =   4.000      Adjusted to redox equilibrium
      Specific Conductance (µS/cm,  25°C)  = 247655
                          Density (g/cm³)  =   1.16365
                               Volume (L)  =   1.10546
                        Activity of water  =   0.811
                 Ionic strength (mol/kgw)  =   4.900e+00
                       Mass of water (kg)  =   1.000e+00
                 Total alkalinity (eq/kg)  =   1.216e-09
                         Temperature (°C)  =  25.00
                  Electrical balance (eq)  =  -4.130e-10
 Percent error, 100*(Cat-|An|)/(Cat+|An|)  =  -0.00
                               Iterations  =   7
                         Gamma iterations  =   4
                      Osmotic coefficient  =   1.18392
                         Density of water  =   0.99704
                                  Total H  = 1.110124e+02
                                  Total O  = 5.550622e+01

----------------------------Distribution of species----------------------------

                                                    MacInnes  MacInnes
                                MacInnes       Log       Log       Log    mole V
   Species          Molality    Activity  Molality  Activity     Gamma    cm³/mol

   OH-             7.157e-08   2.623e-08    -7.145    -7.581    -0.436      3.29
   H+              7.036e-08   3.131e-07    -7.153    -6.504     0.648      0.00
   H2O             5.551e+01   8.114e-01     1.744    -0.091     0.000     18.07
Cl            4.900e+00
   Cl-             4.900e+00   2.896e+00     0.690     0.462    -0.228     19.92
Na            4.900e+00
   Na+             4.900e+00   6.198e+00     0.690     0.792     0.102      1.00

------------------------------Saturation indices-------------------------------

  Phase               SI** log IAP   log K(298 K,   1 atm)

  H2O(g)           -1.59     -0.09    1.50  H2O
  Halite           -0.33      1.25    1.58  NaCl

**For a gas, SI = log10(fugacity). Fugacity = pressure * phi / 1 atm.
  For ideal gases, phi = 1.

Reaction step 37.

Using solution 1.	
Using reaction 1.	

Reaction 1.	

	  1.100e+00 moles of the following reaction have been added:

	                 Relative
	Reactant            moles

	Na0.5Cl0.5           1.00000

	                 Relative
	Element             moles
	Cl                   0.50000
	Na                   0.50000

-----------------------------Solution composition------------------------------

	Elements           Molality       Moles

	Cl                5.450e+00   5.450e+00
	Na                5.450e+00   5.450e+00

----------------------------Description of solution----------------------------

                                       pH  =   6.450      Charge balance
                                       pe  =   4.000      Adjusted to redox equilibrium
      Specific Conductance (µS/cm,  25°C)  = 261080
                          Density (g/cm³)  =   1.17917
                               Volume (L)  =   1.11817
                        Activity of water  =   0.786
                 Ionic strength (mol/kgw)  =   5.450e+00
                       Mass of water (kg)  =   1.000e+00
                 Total alkalinity (eq/kg)  =   1.216e-09
                         Temperature (°C)  =  25.00
                  Electrical balance (eq)  =  -4.128e-10
 Percent error, 100*(Cat-|An|)/(Cat+|An|)  =  -0.00
                               Iterations  =   7
                         Gamma iterations  =   4
                      Osmotic coefficient  =   1.22832
                         Density of water  =   0.99704
                                  Total H  = 1.110124e+02
                                  Total O  = 5.550622e+01

----------------------------Distribution of species----------------------------

                                                    MacInnes  MacInnes
                                MacInnes       Log       Log       Log    mole V
   Species          Molality    Activity  Molality  Activity     Gamma    cm³/mol

   OH-             6.388e-08   2.241e-08    -7.195    -7.650    -0.455      4.01
   H+              6.266e-08   3.549e-07    -7.203    -6.450     0.753      0.00
   H2O             5.551e+01   7.857e-01     1.744    -0.105     0.000     18.07
Cl            5.450e+00
   Cl-             5.450e+00   3.276e+00     0.736     0.515    -0.221     20.01
Na            5.450e+00
   Na+             5.450e+00   7.737e+00     0.736     0.889     0.152      1.13

------------------------------Saturation indices-------------------------------

  Phase               SI** log IAP   log K(298 K,   1 atm)

  H2O(g)           -1.61     -0.10    1.50  H2O
  Halite           -0.18      1.40    1.58  NaCl

**For a gas, SI = log10(fugacity). Fugacity = pressure * phi / 1 atm.
  For ideal gases, phi = 1.

Reaction step 38.

Using solution 1.	
Using reaction 1.	

Reaction 1.	

	  1.100e+00 moles of the following reaction have been added:

	                 Relative
	Reactant            moles

	Na0.5Cl0.5           1.00000

	                 Relative
	Element             moles
	Cl                   0.50000
	Na                   0.50000

-----------------------------Solution composition------------------------------

	Elements           Molality       Moles

	Cl                6.000e+00   6.000e+00
	Na                6.000e+00   6.000e+00

----------------------------Description of solution----------------------------

                                       pH  =   6.395      Charge balance
                                       pe  =   4.000      Adjusted to redox equilibrium
      Specific Conductance (µS/cm,  25°C)  = 272985
                          Density (g/cm³)  =   1.19417
                               Volume (L)  =   1.13105
                        Activity of water  =   0.759
                 Ionic strength (mol/kgw)  =   6.000e+00
                       Mass of water (kg)  =   1.000e+00
                 Total alkalinity (eq/kg)  =   1.216e-09
                         Temperature (°C)  =  25.00
                  Electrical balance (eq)  =  -4.126e-10
 Percent error, 100*(Cat-|An|)/(Cat+|An|)  =  -0.00
                               Iterations  =   7
                         Gamma iterations  =   4
                      Osmotic coefficient  =   1.27430
                         Density of water  =   0.99704
                                  Total H  = 1.110124e+02
                                  Total O  = 5.550622e+01

----------------------------Distribution of species----------------------------

                                                    MacInnes  MacInnes
                                MacInnes       Log       Log       Log    mole V
   Species          Molality    Activity  Molality  Activity     Gamma    cm³/mol

   OH-             5.687e-08   1.910e-08    -7.245    -7.719    -0.474      4.71
   H+              5.566e-08   4.023e-07    -7.254    -6.395     0.859      0.00
   H2O             5.551e+01   7.592e-01     1.744    -0.120     0.000     18.07
Cl            6.000e+00
   Cl-             6.000e+00   3.675e+00     0.778     0.565    -0.213     20.09
Na            6.000e+00
   Na+             6.000e+00   9.618e+00     0.778     0.983     0.205      1.25

------------------------------Saturation indices-------------------------------

  Phase               SI** log IAP   log K(298 K,   1 atm)

  H2O(g)           -1.62     -0.12    1.50  H2O
  Halite           -0.03      1.55    1.58  NaCl

**For a gas, SI = log10(fugacity). Fugacity = pressure * phi / 1 atm.
  For ideal gases, phi = 1.

------------------
End of simulation.
------------------

-------------------------------------
Reading input data for simulation 10.
-------------------------------------

-------------------------------
End of Run after 1.788 Seconds.
-------------------------------

