   Input file: CaCl2_P_T
  Output file: CaCl2_P_T.out
Database file: ../database/pitzer.dat

------------------
Reading data base.
------------------

	SOLUTION_MASTER_SPECIES
	SOLUTION_SPECIES
	PHASES
	PITZER
	EXCHANGE_MASTER_SPECIES
	EXCHANGE_SPECIES
	SURFACE_MASTER_SPECIES
	SURFACE_SPECIES
	END
------------------------------------
Reading input data for simulation 1.
------------------------------------

	DATABASE ../database/pitzer.dat
	SELECTED_OUTPUT 101
	    file                 CaCl2_P_T_101.sel
	USER_PUNCH 101
	    headings Mu SC Viscosity
	    start
	10 PUNCH STR_F$(MU, 20, 12)
	20 PUNCH STR_F$(SC, 20, 10)
	30 PUNCH STR_F$(VISCOS, 20, 10)
	    end
	SOLUTION
	pH 7 charge
	REACTION_TEMPERATURE 1
	 0
	REACTION 1
	 CaCl2 1
	0.004, 0.199, 0.513, 0.709, 1.021, 1.546, 2.084, 2.676, 3.281, 3.872, 4.290, 4.483, 4.802, 5.252, 5.475, 5.783
	PRINT
	 reset false
s.d. for viscos of CaCl2, 0°C   2.2429e+00 % 
s.d. for viscos of CaCl2, 25°C   1.9381e+00 % 
s.d. for viscos of CaCl2, 50°C   5.1857e+00 % 
s.d. for viscos of CaCl2, Abdul et al., 2006, 99 atm   2.6636e+00 % 
s.d. for viscos of CaCl2, Abdul et al., 2006, 300 MPa   2.5818e+00 % 
s.d. for viscos of CaCl2, Abdul et al., 2006, 600 MPa   2.6780e+00 % 
-------------------------------
End of Run after 2.161 Seconds.
-------------------------------

