WARNING: Database file from DATABASE keyword is used; command line argument ignored.
   Input file: Carnallite
  Output file: Carnallite.out
Database file: ../database/pitzer.dat

------------------
Reading data base.
------------------

	SOLUTION_MASTER_SPECIES
	SOLUTION_SPECIES
	PHASES
	PITZER
	EXCHANGE_MASTER_SPECIES
	EXCHANGE_SPECIES
	SURFACE_MASTER_SPECIES
	SURFACE_SPECIES
	END
------------------------------------
Reading input data for simulation 1.
------------------------------------

	DATABASE ../database/pitzer.dat
	PITZER
	b0
	  Mg+2  Cl-  0.351  0  0  -9.32e-4  5.94e-7
WARNING: Redefinition of parameter, Mg+2 Cl-

	b1
	  Mg+2  Cl-  1.65  0  0  -1.09e-2  2.60e-5
WARNING: Redefinition of parameter, Mg+2 Cl-

	c0
	  Mg+2  Cl-  0.00651  0  0  -2.50e-4  2.418e-7
WARNING: Redefinition of parameter, Mg+2 Cl-

	b0
	  K+  Cl-  0.04808  -758.48  -4.7062 0.010072  -3.7599e-6
WARNING: Redefinition of parameter, K+ Cl-

	b1
	  K+  Cl-  0.2168  0  -6.895  2.262e-2  -9.293e-6  -1e5
WARNING: Redefinition of parameter, K+ Cl-

	c0
	  K+  Cl-  -7.88E-04  91.27  0.58643  -1.298e-3  4.9567e-7
WARNING: Redefinition of parameter, K+ Cl-

	psi
	 K+  Mg+2  Cl-  -0.022  -14.27
WARNING: Redefinition of parameter, K+ Mg+2 Cl-

	PHASES
	Carnallite
		KMgCl3:6H2O  =  K+ + Mg++ + 3Cl- + 6H2O
		log_k	 4.35
	 delta_h 1.17
		analytical_expression  24.06  -3.11e-2  -3.09e3
		Vm 173.7
	SOLUTION 1
	 pH 2 charge
	 Mg 7e3
	 K 1e-4 Carnallite
	 Cl 14e3
	END
-------------------------------------------
Beginning of initial solution calculations.
-------------------------------------------

Initial solution 1.	

WARNING: Maximum iterations exceeded, 200

-----------------------------Solution composition------------------------------

	Elements           Molality       Moles

	Cl                1.400e+01   1.400e+01
	K                 2.340e-03   2.340e-03  Equilibrium with Carnallite
	Mg                7.000e+00   7.000e+00

----------------------------Description of solution----------------------------

                                       pH  =   4.370      Charge balance
                                       pe  =   4.000    
       Specific Conductance (uS/cm, 25 oC) = 1808708
                          Density (g/cm3)  =   1.36253
                               Volume (L)  =   1.22317
                        Activity of water  =   0.195
                           Ionic strength  =   2.100e+01
                       Mass of water (kg)  =   1.000e+00
                 Total alkalinity (eq/kg)  =   2.340e-03
                    Total carbon (mol/kg)  =   0.000e+00
                       Total CO2 (mol/kg)  =   0.000e+00
                      Temperature (deg C)  =  25.00
                  Electrical balance (eq)  =  -7.450e-14
 Percent error, 100*(Cat-|An|)/(Cat+|An|)  =  -0.00
                               Iterations  =  20
                         Gamma iterations  =  20
                      Osmotic coefficient  =   4.32458
                         Density of water  =   0.99704
                                  Total H  = 1.110148e+02
                                  Total O  = 5.550856e+01

----------------------------Distribution of species----------------------------

                                                    MacInnes  MacInnes
                                MacInnes       Log       Log       Log    mole V
   Species          Molality    Activity  Molality  Activity     Gamma   cm3/mol

   OH-             6.217e-08   4.621e-11    -7.206   -10.335    -3.129     23.09
   H+              1.311e-08   4.265e-05    -7.882    -4.370     3.512      0.00
   H2O             5.551e+01   1.947e-01     1.744    -0.711     0.000     18.07
Cl            1.400e+01
   Cl-             1.400e+01   1.559e+01     1.146     1.193     0.047     21.45
K             2.340e-03
   K+              2.340e-03   1.187e-02    -2.631    -1.926     0.705     18.56
Mg            7.000e+00
   Mg+2            6.998e+00   1.000e+03     0.845     7.034     6.190    -11.46
   MgOH+           2.340e-03   7.672e-02    -2.631    -1.115     1.516     (0)  

------------------------------Saturation indices-------------------------------

	Phase               SI   log IAP   log K(298 K,   1 atm)

	Bischofite        0.70      5.16    4.46  MgCl2:6H2O
	Brucite          -2.76    -13.64  -10.88  Mg(OH)2
	Carnallite        0.00      4.42    4.42  KMgCl3:6H2O
	H2O(g)           -2.21     -0.71    1.50  H2O
	Sylvite          -1.63     -0.73    0.90  KCl


------------------
End of simulation.
------------------

------------------------------------
Reading input data for simulation 2.
------------------------------------

	USE solution 1
	EQUILIBRIUM_PHASES 1
	  Carnallite
	REACTION 1
	 KCl 1
	 6 in 30
	REACTION_TEMPERATURE 
	 0
	USER_GRAPH 1
	-headings 0.oC
	-chart_title "Carnallite solubility"
	-axis_titles "MgCl2 / (mol/kgw)" "KCl / (mol/kgw)"
	-axis_scale y_axis 0 1.2
	-axis_scale x_axis 3 8
	-plot_csv_file Carnallite.csv
	10 graph_x tot("Mg")
	20 graph_y tot("K")
	-end
	PRINT
	 status false
	END
-----------------------------------------
Beginning of batch-reaction calculations.
-----------------------------------------

Reaction step 1.

Using solution 1.	
Using pure phase assemblage 1.	
Using temperature 1.	
Using reaction 1.	

Reaction 1.	

	  2.000e-01 moles of the following reaction have been added:

	                 Relative
	Reactant            moles

	KCl                  1.00000

	                 Relative
	Element             moles
	Cl                   1.00000
	K                    1.00000

-------------------------------Phase assemblage--------------------------------

                                                      Moles in assemblage
Phase               SI  log IAP  log K(T, P)   Initial       Final       Delta

Carnallite       -0.00     4.25      4.25    1.000e+01   1.020e+01   2.020e-01

-----------------------------Solution composition------------------------------

	Elements           Molality       Moles

	Cl                1.390e+01   1.359e+01
	K                 3.981e-04   3.894e-04
	Mg                6.950e+00   6.798e+00

----------------------------Description of solution----------------------------

                                       pH  =   5.099      Charge balance
                                       pe  =   4.000      Adjusted to redox equilibrium
       Specific Conductance (uS/cm, 0 oC) = 900602
                          Density (g/cm3)  =   1.36454
                               Volume (L)  =   1.19117
                        Activity of water  =   0.171
                           Ionic strength  =   2.084e+01
                       Mass of water (kg)  =   9.782e-01
                 Total alkalinity (eq/kg)  =   2.392e-03
                    Total carbon (mol/kg)  =   0.000e+00
                       Total CO2 (mol/kg)  =   0.000e+00
                      Temperature (deg C)  =   0.00
                  Electrical balance (eq)  =  -7.725e-10
 Percent error, 100*(Cat-|An|)/(Cat+|An|)  =  -0.00
                               Iterations  =  14
                         Gamma iterations  =   4
                      Osmotic coefficient  =   4.70634
                         Density of water  =   0.99984
                                  Total H  = 1.085914e+02
                                  Total O  = 5.429685e+01

----------------------------Distribution of species----------------------------

                                                    MacInnes  MacInnes
                                MacInnes       Log       Log       Log    mole V
   Species          Molality    Activity  Molality  Activity     Gamma   cm3/mol

   OH-             2.565e-08   2.471e-11    -7.591   -10.607    -3.016     19.96
   H+              2.508e-09   7.960e-06    -8.601    -5.099     3.502      0.00
   H2O             5.551e+01   1.707e-01     1.744    -0.768     0.000     18.02
Cl            1.390e+01
   Cl-             1.390e+01   2.742e+01     1.143     1.438     0.295     22.25
K             3.981e-04
   K+              3.981e-04   1.272e-03    -3.400    -2.896     0.504     21.99
Mg            6.950e+00
   Mg+2            6.947e+00   1.000e+03     0.842     7.440     6.598    -13.19
   MgOH+           2.392e-03   8.475e-02    -2.621    -1.072     1.549     (0)  

------------------------------Saturation indices-------------------------------

	Phase               SI   log IAP   log K(273 K,   1 atm)

	Bischofite        1.17      5.71    4.54  MgCl2:6H2O
	Brucite          -2.57    -13.77  -11.21  Mg(OH)2
	Carnallite       -0.00      4.25    4.25  KMgCl3:6H2O
	H2O(g)           -2.98     -0.77    2.21  H2O
	Sylvite          -2.08     -1.46    0.62  KCl


Reaction step 2.

Using solution 1.	
Using pure phase assemblage 1.	
Using temperature 1.	
Using reaction 1.	

Reaction 1.	

	  4.000e-01 moles of the following reaction have been added:

	                 Relative
	Reactant            moles

	KCl                  1.00000

	                 Relative
	Element             moles
	Cl                   1.00000
	K                    1.00000

-------------------------------Phase assemblage--------------------------------

                                                      Moles in assemblage
Phase               SI  log IAP  log K(T, P)   Initial       Final       Delta

Carnallite        0.00     4.25      4.25    1.000e+01   1.040e+01   4.019e-01

-----------------------------Solution composition------------------------------

	Elements           Molality       Moles

	Cl                1.379e+01   1.319e+01
	K                 4.335e-04   4.147e-04
	Mg                6.898e+00   6.598e+00

----------------------------Description of solution----------------------------

                                       pH  =   5.146      Charge balance
                                       pe  =   4.000      Adjusted to redox equilibrium
       Specific Conductance (uS/cm, 0 oC) = 893859
                          Density (g/cm3)  =   1.36313
                               Volume (L)  =   1.16259
                        Activity of water  =   0.175
                           Ionic strength  =   2.069e+01
                       Mass of water (kg)  =   9.566e-01
                 Total alkalinity (eq/kg)  =   2.446e-03
                    Total carbon (mol/kg)  =   0.000e+00
                       Total CO2 (mol/kg)  =   0.000e+00
                      Temperature (deg C)  =   0.00
                  Electrical balance (eq)  =   8.699e-12
 Percent error, 100*(Cat-|An|)/(Cat+|An|)  =   0.00
                               Iterations  =  14
                         Gamma iterations  =   4
                      Osmotic coefficient  =   4.66864
                         Density of water  =   0.99984
                                  Total H  = 1.061917e+02
                                  Total O  = 5.309700e+01

----------------------------Distribution of species----------------------------

                                                    MacInnes  MacInnes
                                MacInnes       Log       Log       Log    mole V
   Species          Molality    Activity  Molality  Activity     Gamma   cm3/mol

   OH-             2.828e-08   2.832e-11    -7.549   -10.548    -2.999     19.78
   H+              2.395e-09   7.138e-06    -8.621    -5.146     3.474      0.00
   H2O             5.551e+01   1.755e-01     1.744    -0.756     0.000     18.02
Cl            1.379e+01
   Cl-             1.379e+01   2.670e+01     1.140     1.426     0.287     22.22
K             4.335e-04
   K+              4.335e-04   1.380e-03    -3.363    -2.860     0.503     21.89
Mg            6.898e+00
   Mg+2            6.895e+00   1.000e+03     0.839     7.368     6.530    -13.23
   MgOH+           2.446e-03   8.231e-02    -2.611    -1.085     1.527     (0)  

------------------------------Saturation indices-------------------------------

	Phase               SI   log IAP   log K(273 K,   1 atm)

	Bischofite        1.15      5.69    4.54  MgCl2:6H2O
	Brucite          -2.52    -13.73  -11.21  Mg(OH)2
	Carnallite        0.00      4.25    4.25  KMgCl3:6H2O
	H2O(g)           -2.97     -0.76    2.21  H2O
	Sylvite          -2.05     -1.43    0.62  KCl


Reaction step 3.

Using solution 1.	
Using pure phase assemblage 1.	
Using temperature 1.	
Using reaction 1.	

Reaction 1.	

	  6.000e-01 moles of the following reaction have been added:

	                 Relative
	Reactant            moles

	KCl                  1.00000

	                 Relative
	Element             moles
	Cl                   1.00000
	K                    1.00000

-------------------------------Phase assemblage--------------------------------

                                                      Moles in assemblage
Phase               SI  log IAP  log K(T, P)   Initial       Final       Delta

Carnallite        0.00     4.25      4.25    1.000e+01   1.060e+01   6.019e-01

-----------------------------Solution composition------------------------------

	Elements           Molality       Moles

	Cl                1.368e+01   1.279e+01
	K                 4.747e-04   4.438e-04
	Mg                6.843e+00   6.398e+00

----------------------------Description of solution----------------------------

                                       pH  =   5.196      Charge balance
                                       pe  =   4.000      Adjusted to redox equilibrium
       Specific Conductance (uS/cm, 0 oC) = 886805
                          Density (g/cm3)  =   1.36162
                               Volume (L)  =   1.13401
                        Activity of water  =   0.180
                           Ionic strength  =   2.053e+01
                       Mass of water (kg)  =   9.349e-01
                 Total alkalinity (eq/kg)  =   2.503e-03
                    Total carbon (mol/kg)  =   0.000e+00
                       Total CO2 (mol/kg)  =   0.000e+00
                      Temperature (deg C)  =   0.00
                  Electrical balance (eq)  =   4.501e-10
 Percent error, 100*(Cat-|An|)/(Cat+|An|)  =   0.00
                               Iterations  =  14
                         Gamma iterations  =   4
                      Osmotic coefficient  =   4.62931
                         Density of water  =   0.99984
                                  Total H  = 1.037920e+02
                                  Total O  = 5.189718e+01

----------------------------Distribution of species----------------------------

                                                    MacInnes  MacInnes
                                MacInnes       Log       Log       Log    mole V
   Species          Molality    Activity  Molality  Activity     Gamma   cm3/mol

   OH-             3.130e-08   3.265e-11    -7.504   -10.486    -2.982     19.59
   H+              2.283e-09   6.369e-06    -8.642    -5.196     3.446      0.00
   H2O             5.551e+01   1.805e-01     1.744    -0.744     0.000     18.02
Cl            1.368e+01
   Cl-             1.368e+01   2.597e+01     1.136     1.414     0.278     22.19
K             4.747e-04
   K+              4.747e-04   1.505e-03    -3.324    -2.823     0.501     21.78
Mg            6.843e+00
   Mg+2            6.841e+00   1.000e+03     0.835     7.293     6.458    -13.28
   MgOH+           2.503e-03   7.982e-02    -2.602    -1.098     1.504     (0)  

------------------------------Saturation indices-------------------------------

	Phase               SI   log IAP   log K(273 K,   1 atm)

	Bischofite        1.12      5.66    4.54  MgCl2:6H2O
	Brucite          -2.47    -13.68  -11.21  Mg(OH)2
	Carnallite        0.00      4.25    4.25  KMgCl3:6H2O
	H2O(g)           -2.95     -0.74    2.21  H2O
	Sylvite          -2.03     -1.41    0.62  KCl


Reaction step 4.

Using solution 1.	
Using pure phase assemblage 1.	
Using temperature 1.	
Using reaction 1.	

Reaction 1.	

	  8.000e-01 moles of the following reaction have been added:

	                 Relative
	Reactant            moles

	KCl                  1.00000

	                 Relative
	Element             moles
	Cl                   1.00000
	K                    1.00000

-------------------------------Phase assemblage--------------------------------

                                                      Moles in assemblage
Phase               SI  log IAP  log K(T, P)   Initial       Final       Delta

Carnallite        0.00     4.25      4.25    1.000e+01   1.080e+01   8.019e-01

-----------------------------Solution composition------------------------------

	Elements           Molality       Moles

	Cl                1.357e+01   1.239e+01
	K                 5.227e-04   4.774e-04
	Mg                6.786e+00   6.198e+00

----------------------------Description of solution----------------------------

                                       pH  =   5.248      Charge balance
                                       pe  =   4.000      Adjusted to redox equilibrium
       Specific Conductance (uS/cm, 0 oC) = 879418
                          Density (g/cm3)  =   1.36001
                               Volume (L)  =   1.10546
                        Activity of water  =   0.186
                           Ionic strength  =   2.035e+01
                       Mass of water (kg)  =   9.133e-01
                 Total alkalinity (eq/kg)  =   2.562e-03
                    Total carbon (mol/kg)  =   0.000e+00
                       Total CO2 (mol/kg)  =   0.000e+00
                      Temperature (deg C)  =   0.00
                  Electrical balance (eq)  =   6.312e-10
 Percent error, 100*(Cat-|An|)/(Cat+|An|)  =   0.00
                               Iterations  =  14
                         Gamma iterations  =   4
                      Osmotic coefficient  =   4.58824
                         Density of water  =   0.99984
                                  Total H  = 1.013924e+02
                                  Total O  = 5.069738e+01

----------------------------Distribution of species----------------------------

                                                    MacInnes  MacInnes
                                MacInnes       Log       Log       Log    mole V
   Species          Molality    Activity  Molality  Activity     Gamma   cm3/mol

   OH-             3.479e-08   3.788e-11    -7.459   -10.422    -2.963     19.39
   H+              2.171e-09   5.653e-06    -8.663    -5.248     3.416      0.00
   H2O             5.551e+01   1.859e-01     1.744    -0.731     0.000     18.02
Cl            1.357e+01
   Cl-             1.357e+01   2.522e+01     1.133     1.402     0.269     22.15
K             5.227e-04
   K+              5.227e-04   1.650e-03    -3.282    -2.783     0.499     21.67
Mg            6.786e+00
   Mg+2            6.784e+00   1.000e+03     0.831     7.215     6.383    -13.33
   MgOH+           2.562e-03   7.728e-02    -2.591    -1.112     1.479     (0)  

------------------------------Saturation indices-------------------------------

	Phase               SI   log IAP   log K(273 K,   1 atm)

	Bischofite        1.09      5.63    4.54  MgCl2:6H2O
	Brucite          -2.42    -13.63  -11.21  Mg(OH)2
	Carnallite        0.00      4.25    4.25  KMgCl3:6H2O
	H2O(g)           -2.94     -0.73    2.21  H2O
	Sylvite          -2.00     -1.38    0.62  KCl


Reaction step 5.

Using solution 1.	
Using pure phase assemblage 1.	
Using temperature 1.	
Using reaction 1.	

Reaction 1.	

	  1.000e+00 moles of the following reaction have been added:

	                 Relative
	Reactant            moles

	KCl                  1.00000

	                 Relative
	Element             moles
	Cl                   1.00000
	K                    1.00000

-------------------------------Phase assemblage--------------------------------

                                                      Moles in assemblage
Phase               SI  log IAP  log K(T, P)   Initial       Final       Delta

Carnallite        0.00     4.25      4.25    1.000e+01   1.100e+01   1.002e+00

-----------------------------Solution composition------------------------------

	Elements           Molality       Moles

	Cl                1.345e+01   1.199e+01
	K                 5.793e-04   5.166e-04
	Mg                6.727e+00   5.998e+00

----------------------------Description of solution----------------------------

                                       pH  =   5.302      Charge balance
                                       pe  =   4.000      Adjusted to redox equilibrium
       Specific Conductance (uS/cm, 0 oC) = 871672
                          Density (g/cm3)  =   1.35841
                               Volume (L)  =   1.07684
                        Activity of water  =   0.192
                           Ionic strength  =   2.018e+01
                       Mass of water (kg)  =   8.917e-01
                 Total alkalinity (eq/kg)  =   2.624e-03
                    Total carbon (mol/kg)  =   0.000e+00
                       Total CO2 (mol/kg)  =   0.000e+00
                      Temperature (deg C)  =   0.00
                  Electrical balance (eq)  =   6.598e-10
 Percent error, 100*(Cat-|An|)/(Cat+|An|)  =   0.00
                               Iterations  =  14
                         Gamma iterations  =   4
                      Osmotic coefficient  =   4.54530
                         Density of water  =   0.99984
                                  Total H  = 9.899289e+01
                                  Total O  = 4.949762e+01

----------------------------Distribution of species----------------------------

                                                    MacInnes  MacInnes
                                MacInnes       Log       Log       Log    mole V
   Species          Molality    Activity  Molality  Activity     Gamma   cm3/mol

   OH-             3.886e-08   4.425e-11    -7.411   -10.354    -2.944     19.17
   H+              2.061e-09   4.990e-06    -8.686    -5.302     3.384      0.00
   H2O             5.551e+01   1.916e-01     1.744    -0.718     0.000     18.02
Cl            1.345e+01
   Cl-             1.345e+01   2.447e+01     1.129     1.389     0.260     22.12
K             5.793e-04
   K+              5.793e-04   1.819e-03    -3.237    -2.740     0.497     21.55
Mg            6.727e+00
   Mg+2            6.724e+00   1.000e+03     0.828     7.132     6.305    -13.39
   MgOH+           2.624e-03   7.470e-02    -2.581    -1.127     1.454     (0)  

------------------------------Saturation indices-------------------------------

	Phase               SI   log IAP   log K(273 K,   1 atm)

	Bischofite        1.06      5.60    4.54  MgCl2:6H2O
	Brucite          -2.37    -13.58  -11.21  Mg(OH)2
	Carnallite        0.00      4.25    4.25  KMgCl3:6H2O
	H2O(g)           -2.93     -0.72    2.21  H2O
	Sylvite          -1.97     -1.35    0.62  KCl


Reaction step 6.

Using solution 1.	
Using pure phase assemblage 1.	
Using temperature 1.	
Using reaction 1.	

Reaction 1.	

	  1.200e+00 moles of the following reaction have been added:

	                 Relative
	Reactant            moles

	KCl                  1.00000

	                 Relative
	Element             moles
	Cl                   1.00000
	K                    1.00000

-------------------------------Phase assemblage--------------------------------

                                                      Moles in assemblage
Phase               SI  log IAP  log K(T, P)   Initial       Final       Delta

Carnallite        0.00     4.25      4.25    1.000e+01   1.120e+01   1.202e+00

-----------------------------Solution composition------------------------------

	Elements           Molality       Moles

	Cl                1.333e+01   1.159e+01
	K                 6.465e-04   5.625e-04
	Mg                6.664e+00   5.798e+00

----------------------------Description of solution----------------------------

                                       pH  =   5.359      Charge balance
                                       pe  =   4.000      Adjusted to redox equilibrium
       Specific Conductance (uS/cm, 0 oC) = 863543
                          Density (g/cm3)  =   1.35661
                               Volume (L)  =   1.04831
                        Activity of water  =   0.198
                           Ionic strength  =   1.999e+01
                       Mass of water (kg)  =   8.701e-01
                 Total alkalinity (eq/kg)  =   2.689e-03
                    Total carbon (mol/kg)  =   0.000e+00
                       Total CO2 (mol/kg)  =   0.000e+00
                      Temperature (deg C)  =   0.00
                  Electrical balance (eq)  =   6.311e-10
 Percent error, 100*(Cat-|An|)/(Cat+|An|)  =   0.00
                               Iterations  =  14
                         Gamma iterations  =   4
                      Osmotic coefficient  =   4.50037
                         Density of water  =   0.99984
                                  Total H  = 9.659344e+01
                                  Total O  = 4.829789e+01

----------------------------Distribution of species----------------------------

                                                    MacInnes  MacInnes
                                MacInnes       Log       Log       Log    mole V
   Species          Molality    Activity  Molality  Activity     Gamma   cm3/mol

   OH-             4.361e-08   5.206e-11    -7.360   -10.283    -2.923     18.95
   H+              1.951e-09   4.377e-06    -8.710    -5.359     3.351      0.00
   H2O             5.551e+01   1.978e-01     1.744    -0.704     0.000     18.02
Cl            1.333e+01
   Cl-             1.333e+01   2.370e+01     1.125     1.375     0.250     22.08
K             6.465e-04
   K+              6.465e-04   2.019e-03    -3.189    -2.695     0.495     21.42
Mg            6.664e+00
   Mg+2            6.661e+00   1.000e+03     0.824     7.046     6.223    -13.45
   MgOH+           2.689e-03   7.208e-02    -2.570    -1.142     1.428     (0)  

------------------------------Saturation indices-------------------------------

	Phase               SI   log IAP   log K(273 K,   1 atm)

	Bischofite        1.03      5.57    4.54  MgCl2:6H2O
	Brucite          -2.32    -13.52  -11.21  Mg(OH)2
	Carnallite        0.00      4.25    4.25  KMgCl3:6H2O
	H2O(g)           -2.91     -0.70    2.21  H2O
	Sylvite          -1.94     -1.32    0.62  KCl


Reaction step 7.

Using solution 1.	
Using pure phase assemblage 1.	
Using temperature 1.	
Using reaction 1.	

Reaction 1.	

	  1.400e+00 moles of the following reaction have been added:

	                 Relative
	Reactant            moles

	KCl                  1.00000

	                 Relative
	Element             moles
	Cl                   1.00000
	K                    1.00000

-------------------------------Phase assemblage--------------------------------

                                                      Moles in assemblage
Phase               SI  log IAP  log K(T, P)   Initial       Final       Delta

Carnallite        0.00     4.25      4.25    1.000e+01   1.140e+01   1.402e+00

-----------------------------Solution composition------------------------------

	Elements           Molality       Moles

	Cl                1.319e+01   1.119e+01
	K                 7.269e-04   6.167e-04
	Mg                6.598e+00   5.598e+00

----------------------------Description of solution----------------------------

                                       pH  =   5.419      Charge balance
                                       pe  =   4.000      Adjusted to redox equilibrium
       Specific Conductance (uS/cm, 0 oC) = 855001
                          Density (g/cm3)  =   1.35470
                               Volume (L)  =   1.01978
                        Activity of water  =   0.204
                           Ionic strength  =   1.979e+01
                       Mass of water (kg)  =   8.485e-01
                 Total alkalinity (eq/kg)  =   2.758e-03
                    Total carbon (mol/kg)  =   0.000e+00
                       Total CO2 (mol/kg)  =   0.000e+00
                      Temperature (deg C)  =   0.00
                  Electrical balance (eq)  =   5.410e-10
 Percent error, 100*(Cat-|An|)/(Cat+|An|)  =   0.00
                               Iterations  =  14
                         Gamma iterations  =   4
                      Osmotic coefficient  =   4.45331
                         Density of water  =   0.99984
                                  Total H  = 9.419409e+01
                                  Total O  = 4.709822e+01

----------------------------Distribution of species----------------------------

                                                    MacInnes  MacInnes
                                MacInnes       Log       Log       Log    mole V
   Species          Molality    Activity  Molality  Activity     Gamma   cm3/mol

   OH-             4.921e-08   6.174e-11    -7.308   -10.209    -2.902     18.72
   H+              1.842e-09   3.814e-06    -8.735    -5.419     3.316      0.00
   H2O             5.551e+01   2.043e-01     1.744    -0.690     0.000     18.02
Cl            1.319e+01
   Cl-             1.319e+01   2.293e+01     1.120     1.360     0.240     22.04
K             7.269e-04
   K+              7.269e-04   2.257e-03    -3.139    -2.647     0.492     21.29
Mg            6.598e+00
   Mg+2            6.595e+00   1.000e+03     0.819     6.956     6.137    -13.51
   MgOH+           2.758e-03   6.943e-02    -2.559    -1.158     1.401     (0)  

------------------------------Saturation indices-------------------------------

	Phase               SI   log IAP   log K(273 K,   1 atm)

	Bischofite        1.00      5.54    4.54  MgCl2:6H2O
	Brucite          -2.26    -13.46  -11.21  Mg(OH)2
	Carnallite        0.00      4.25    4.25  KMgCl3:6H2O
	H2O(g)           -2.90     -0.69    2.21  H2O
	Sylvite          -1.90     -1.29    0.62  KCl


Reaction step 8.

Using solution 1.	
Using pure phase assemblage 1.	
Using temperature 1.	
Using reaction 1.	

Reaction 1.	

	  1.600e+00 moles of the following reaction have been added:

	                 Relative
	Reactant            moles

	KCl                  1.00000

	                 Relative
	Element             moles
	Cl                   1.00000
	K                    1.00000

-------------------------------Phase assemblage--------------------------------

                                                      Moles in assemblage
Phase               SI  log IAP  log K(T, P)   Initial       Final       Delta

Carnallite       -0.00     4.25      4.25    1.000e+01   1.160e+01   1.602e+00

-----------------------------Solution composition------------------------------

	Elements           Molality       Moles

	Cl                1.306e+01   1.080e+01
	K                 8.241e-04   6.814e-04
	Mg                6.529e+00   5.398e+00

----------------------------Description of solution----------------------------

                                       pH  =   5.482      Charge balance
                                       pe  =   4.000      Adjusted to redox equilibrium
       Specific Conductance (uS/cm, 0 oC) = 846014
                          Density (g/cm3)  =   1.35267
                               Volume (L)  =   0.99127
                        Activity of water  =   0.211
                           Ionic strength  =   1.958e+01
                       Mass of water (kg)  =   8.269e-01
                 Total alkalinity (eq/kg)  =   2.830e-03
                    Total carbon (mol/kg)  =   0.000e+00
                       Total CO2 (mol/kg)  =   0.000e+00
                      Temperature (deg C)  =   0.00
                  Electrical balance (eq)  =  -1.682e-11
 Percent error, 100*(Cat-|An|)/(Cat+|An|)  =  -0.00
                               Iterations  =  16
                         Gamma iterations  =   4
                      Osmotic coefficient  =   4.40396
                         Density of water  =   0.99984
                                  Total H  = 9.179487e+01
                                  Total O  = 4.589860e+01

----------------------------Distribution of species----------------------------

                                                    MacInnes  MacInnes
                                MacInnes       Log       Log       Log    mole V
   Species          Molality    Activity  Molality  Activity     Gamma   cm3/mol

   OH-             5.586e-08   7.383e-11    -7.253   -10.132    -2.879     18.47
   H+              1.734e-09   3.300e-06    -8.761    -5.482     3.279      0.00
   H2O             5.551e+01   2.114e-01     1.744    -0.675     0.000     18.02
Cl            1.306e+01
   Cl-             1.306e+01   2.214e+01     1.116     1.345     0.229     22.00
K             8.241e-04
   K+              8.241e-04   2.542e-03    -3.084    -2.595     0.489     21.16
Mg            6.529e+00
   Mg+2            6.526e+00   1.000e+03     0.815     6.861     6.046    -13.57
   MgOH+           2.830e-03   6.674e-02    -2.548    -1.176     1.373     (0)  

------------------------------Saturation indices-------------------------------

	Phase               SI   log IAP   log K(273 K,   1 atm)

	Bischofite        0.96      5.50    4.54  MgCl2:6H2O
	Brucite          -2.20    -13.40  -11.21  Mg(OH)2
	Carnallite       -0.00      4.25    4.25  KMgCl3:6H2O
	H2O(g)           -2.88     -0.67    2.21  H2O
	Sylvite          -1.87     -1.25    0.62  KCl


Reaction step 9.

Using solution 1.	
Using pure phase assemblage 1.	
Using temperature 1.	
Using reaction 1.	

Reaction 1.	

	  1.800e+00 moles of the following reaction have been added:

	                 Relative
	Reactant            moles

	KCl                  1.00000

	                 Relative
	Element             moles
	Cl                   1.00000
	K                    1.00000

-------------------------------Phase assemblage--------------------------------

                                                      Moles in assemblage
Phase               SI  log IAP  log K(T, P)   Initial       Final       Delta

Carnallite        0.00     4.25      4.25    1.000e+01   1.180e+01   1.802e+00

-----------------------------Solution composition------------------------------

	Elements           Molality       Moles

	Cl                1.291e+01   1.040e+01
	K                 9.428e-04   7.592e-04
	Mg                6.456e+00   5.198e+00

----------------------------Description of solution----------------------------

                                       pH  =   5.548      Charge balance
                                       pe  =   4.000      Adjusted to redox equilibrium
       Specific Conductance (uS/cm, 0 oC) = 836546
                          Density (g/cm3)  =   1.35049
                               Volume (L)  =   0.96277
                        Activity of water  =   0.219
                           Ionic strength  =   1.936e+01
                       Mass of water (kg)  =   8.053e-01
                 Total alkalinity (eq/kg)  =   2.906e-03
                    Total carbon (mol/kg)  =   0.000e+00
                       Total CO2 (mol/kg)  =   0.000e+00
                      Temperature (deg C)  =   0.00
                  Electrical balance (eq)  =  -4.270e-12
 Percent error, 100*(Cat-|An|)/(Cat+|An|)  =  -0.00
                               Iterations  =  18
                         Gamma iterations  =   5
                      Osmotic coefficient  =   4.35215
                         Density of water  =   0.99984
                                  Total H  = 8.939580e+01
                                  Total O  = 4.469907e+01

----------------------------Distribution of species----------------------------

                                                    MacInnes  MacInnes
                                MacInnes       Log       Log       Log    mole V
   Species          Molality    Activity  Molality  Activity     Gamma   cm3/mol

   OH-             6.380e-08   8.910e-11    -7.195   -10.050    -2.855     18.22
   H+              1.628e-09   2.833e-06    -8.788    -5.548     3.241      0.00
   H2O             5.551e+01   2.191e-01     1.744    -0.659     0.000     18.02
Cl            1.291e+01
   Cl-             1.291e+01   2.134e+01     1.111     1.329     0.218     21.95
K             9.428e-04
   K+              9.428e-04   2.887e-03    -3.026    -2.540     0.486     21.01
Mg            6.456e+00
   Mg+2            6.453e+00   1.000e+03     0.810     6.761     5.952    -13.63
   MgOH+           2.906e-03   6.402e-02    -2.537    -1.194     1.343     (0)  

------------------------------Saturation indices-------------------------------

	Phase               SI   log IAP   log K(273 K,   1 atm)

	Bischofite        0.92      5.46    4.54  MgCl2:6H2O
	Brucite          -2.13    -13.34  -11.21  Mg(OH)2
	Carnallite        0.00      4.25    4.25  KMgCl3:6H2O
	H2O(g)           -2.87     -0.66    2.21  H2O
	Sylvite          -1.83     -1.21    0.62  KCl


Reaction step 10.

Using solution 1.	
Using pure phase assemblage 1.	
Using temperature 1.	
Using reaction 1.	

Reaction 1.	

	  2.000e+00 moles of the following reaction have been added:

	                 Relative
	Reactant            moles

	KCl                  1.00000

	                 Relative
	Element             moles
	Cl                   1.00000
	K                    1.00000

-------------------------------Phase assemblage--------------------------------

                                                      Moles in assemblage
Phase               SI  log IAP  log K(T, P)   Initial       Final       Delta

Carnallite        0.00     4.25      4.25    1.000e+01   1.200e+01   2.001e+00

-----------------------------Solution composition------------------------------

	Elements           Molality       Moles

	Cl                1.276e+01   9.996e+00
	K                 1.090e-03   8.539e-04
	Mg                6.379e+00   4.999e+00

----------------------------Description of solution----------------------------

                                       pH  =   5.618      Charge balance
                                       pe  =   4.000      Adjusted to redox equilibrium
       Specific Conductance (uS/cm, 0 oC) = 826559
                          Density (g/cm3)  =   1.34815
                               Volume (L)  =   0.93430
                        Activity of water  =   0.227
                           Ionic strength  =   1.913e+01
                       Mass of water (kg)  =   7.836e-01
                 Total alkalinity (eq/kg)  =   2.986e-03
                    Total carbon (mol/kg)  =   0.000e+00
                       Total CO2 (mol/kg)  =   0.000e+00
                      Temperature (deg C)  =   0.00
                  Electrical balance (eq)  =  -1.035e-08
 Percent error, 100*(Cat-|An|)/(Cat+|An|)  =  -0.00
                               Iterations  =  20
                         Gamma iterations  =   6
                      Osmotic coefficient  =   4.29770
                         Density of water  =   0.99984
                                  Total H  = 8.699694e+01
                                  Total O  = 4.349964e+01

----------------------------Distribution of species----------------------------

                                                    MacInnes  MacInnes
                                MacInnes       Log       Log       Log    mole V
   Species          Molality    Activity  Molality  Activity     Gamma   cm3/mol

   OH-             7.335e-08   1.086e-10    -7.135    -9.964    -2.830     17.95
   H+              1.522e-09   2.412e-06    -8.817    -5.618     3.200      0.00
   H2O             5.551e+01   2.273e-01     1.744    -0.643     0.000     18.02
Cl            1.276e+01
   Cl-             1.276e+01   2.053e+01     1.106     1.312     0.207     21.91
K             1.090e-03
   K+              1.090e-03   3.309e-03    -2.963    -2.480     0.482     20.86
Mg            6.379e+00
   Mg+2            6.376e+00   1.000e+03     0.805     6.656     5.852    -13.70
   MgOH+           2.986e-03   6.127e-02    -2.525    -1.213     1.312     (0)  

------------------------------Saturation indices-------------------------------

	Phase               SI   log IAP   log K(273 K,   1 atm)

	Bischofite        0.88      5.42    4.54  MgCl2:6H2O
	Brucite          -2.07    -13.27  -11.21  Mg(OH)2
	Carnallite        0.00      4.25    4.25  KMgCl3:6H2O
	H2O(g)           -2.85     -0.64    2.21  H2O
	Sylvite          -1.79     -1.17    0.62  KCl


Reaction step 11.

Using solution 1.	
Using pure phase assemblage 1.	
Using temperature 1.	
Using reaction 1.	

Reaction 1.	

	  2.200e+00 moles of the following reaction have been added:

	                 Relative
	Reactant            moles

	KCl                  1.00000

	                 Relative
	Element             moles
	Cl                   1.00000
	K                    1.00000

-------------------------------Phase assemblage--------------------------------

                                                      Moles in assemblage
Phase               SI  log IAP  log K(T, P)   Initial       Final       Delta

Carnallite       -0.00     4.25      4.25    1.000e+01   1.220e+01   2.201e+00

-----------------------------Solution composition------------------------------

	Elements           Molality       Moles

	Cl                1.259e+01   9.596e+00
	K                 1.273e-03   9.704e-04
	Mg                6.297e+00   4.799e+00

----------------------------Description of solution----------------------------

                                       pH  =   5.692      Charge balance
                                       pe  =   4.000      Adjusted to redox equilibrium
       Specific Conductance (uS/cm, 0 oC) = 816009
                          Density (g/cm3)  =   1.34564
                               Volume (L)  =   0.90585
                        Activity of water  =   0.236
                           Ionic strength  =   1.889e+01
                       Mass of water (kg)  =   7.620e-01
                 Total alkalinity (eq/kg)  =   3.071e-03
                    Total carbon (mol/kg)  =   0.000e+00
                       Total CO2 (mol/kg)  =   0.000e+00
                      Temperature (deg C)  =   0.00
                  Electrical balance (eq)  =  -5.316e-12
 Percent error, 100*(Cat-|An|)/(Cat+|An|)  =  -0.00
                               Iterations  =  22
                         Gamma iterations  =   7
                      Osmotic coefficient  =   4.24041
                         Density of water  =   0.99984
                                  Total H  = 8.459834e+01
                                  Total O  = 4.230034e+01

----------------------------Distribution of species----------------------------

                                                    MacInnes  MacInnes
                                MacInnes       Log       Log       Log    mole V
   Species          Molality    Activity  Molality  Activity     Gamma   cm3/mol

   OH-             8.497e-08   1.338e-10    -7.071    -9.874    -2.803     17.66
   H+              1.419e-09   2.034e-06    -8.848    -5.692     3.157      0.00
   H2O             5.551e+01   2.362e-01     1.744    -0.627     0.000     18.02
Cl            1.259e+01
   Cl-             1.259e+01   1.971e+01     1.100     1.295     0.194     21.86
K             1.273e-03
   K+              1.273e-03   3.832e-03    -2.895    -2.417     0.478     20.70
Mg            6.297e+00
   Mg+2            6.294e+00   1.000e+03     0.799     6.546     5.747    -13.78
   MgOH+           3.071e-03   5.851e-02    -2.513    -1.233     1.280     (0)  

------------------------------Saturation indices-------------------------------

	Phase               SI   log IAP   log K(273 K,   1 atm)

	Bischofite        0.83      5.37    4.54  MgCl2:6H2O
	Brucite          -2.00    -13.20  -11.21  Mg(OH)2
	Carnallite       -0.00      4.25    4.25  KMgCl3:6H2O
	H2O(g)           -2.84     -0.63    2.21  H2O
	Sylvite          -1.74     -1.12    0.62  KCl


Reaction step 12.

Using solution 1.	
Using pure phase assemblage 1.	
Using temperature 1.	
Using reaction 1.	

Reaction 1.	

	  2.400e+00 moles of the following reaction have been added:

	                 Relative
	Reactant            moles

	KCl                  1.00000

	                 Relative
	Element             moles
	Cl                   1.00000
	K                    1.00000

-------------------------------Phase assemblage--------------------------------

                                                      Moles in assemblage
Phase               SI  log IAP  log K(T, P)   Initial       Final       Delta

Carnallite        0.00     4.25      4.25    1.000e+01   1.240e+01   2.401e+00

-----------------------------Solution composition------------------------------

	Elements           Molality       Moles

	Cl                1.242e+01   9.196e+00
	K                 1.507e-03   1.116e-03
	Mg                6.211e+00   4.599e+00

----------------------------Description of solution----------------------------

                                       pH  =   5.770      Charge balance
                                       pe  =   4.000      Adjusted to redox equilibrium
       Specific Conductance (uS/cm, 0 oC) = 804847
                          Density (g/cm3)  =   1.34293
                               Volume (L)  =   0.87743
                        Activity of water  =   0.246
                           Ionic strength  =   1.863e+01
                       Mass of water (kg)  =   7.404e-01
                 Total alkalinity (eq/kg)  =   3.160e-03
                    Total carbon (mol/kg)  =   0.000e+00
                       Total CO2 (mol/kg)  =   0.000e+00
                      Temperature (deg C)  =   0.00
                  Electrical balance (eq)  =  -1.034e-11
 Percent error, 100*(Cat-|An|)/(Cat+|An|)  =  -0.00
                               Iterations  =  21
                         Gamma iterations  =   7
                      Osmotic coefficient  =   4.18005
                         Density of water  =   0.99984
                                  Total H  = 8.220008e+01
                                  Total O  = 4.110121e+01

----------------------------Distribution of species----------------------------

                                                    MacInnes  MacInnes
                                MacInnes       Log       Log       Log    mole V
   Species          Molality    Activity  Molality  Activity     Gamma   cm3/mol

   OH-             9.920e-08   1.667e-10    -7.004    -9.778    -2.774     17.36
   H+              1.317e-09   1.699e-06    -8.881    -5.770     3.111      0.00
   H2O             5.551e+01   2.458e-01     1.744    -0.609     0.000     18.02
Cl            1.242e+01
   Cl-             1.242e+01   1.887e+01     1.094     1.276     0.182     21.81
K             1.507e-03
   K+              1.507e-03   4.489e-03    -2.822    -2.348     0.474     20.53
Mg            6.211e+00
   Mg+2            6.208e+00   1.000e+03     0.793     6.429     5.636    -13.85
   MgOH+           3.160e-03   5.572e-02    -2.500    -1.254     1.246     (0)  

------------------------------Saturation indices-------------------------------

	Phase               SI   log IAP   log K(273 K,   1 atm)

	Bischofite        0.78      5.32    4.54  MgCl2:6H2O
	Brucite          -1.92    -13.13  -11.21  Mg(OH)2
	Carnallite        0.00      4.25    4.25  KMgCl3:6H2O
	H2O(g)           -2.82     -0.61    2.21  H2O
	Sylvite          -1.69     -1.07    0.62  KCl


Reaction step 13.

Using solution 1.	
Using pure phase assemblage 1.	
Using temperature 1.	
Using reaction 1.	

Reaction 1.	

	  2.600e+00 moles of the following reaction have been added:

	                 Relative
	Reactant            moles

	KCl                  1.00000

	                 Relative
	Element             moles
	Cl                   1.00000
	K                    1.00000

-------------------------------Phase assemblage--------------------------------

                                                      Moles in assemblage
Phase               SI  log IAP  log K(T, P)   Initial       Final       Delta

Carnallite        0.00     4.25      4.25    1.000e+01   1.260e+01   2.601e+00

-----------------------------Solution composition------------------------------

	Elements           Molality       Moles

	Cl                1.224e+01   8.797e+00
	K                 1.808e-03   1.299e-03
	Mg                6.120e+00   4.399e+00

----------------------------Description of solution----------------------------

                                       pH  =   5.853      Charge balance
                                       pe  =   4.000      Adjusted to redox equilibrium
       Specific Conductance (uS/cm, 0 oC) = 793021
                          Density (g/cm3)  =   1.34000
                               Volume (L)  =   0.84904
                        Activity of water  =   0.256
                           Ionic strength  =   1.835e+01
                       Mass of water (kg)  =   7.188e-01
                 Total alkalinity (eq/kg)  =   3.255e-03
                    Total carbon (mol/kg)  =   0.000e+00
                       Total CO2 (mol/kg)  =   0.000e+00
                      Temperature (deg C)  =   0.00
                  Electrical balance (eq)  =  -7.947e-12
 Percent error, 100*(Cat-|An|)/(Cat+|An|)  =  -0.00
                               Iterations  =  23
                         Gamma iterations  =   8
                      Osmotic coefficient  =   4.11636
                         Density of water  =   0.99984
                                  Total H  = 7.980229e+01
                                  Total O  = 3.990231e+01

----------------------------Distribution of species----------------------------

                                                    MacInnes  MacInnes
                                MacInnes       Log       Log       Log    mole V
   Species          Molality    Activity  Molality  Activity     Gamma   cm3/mol

   OH-             1.168e-07   2.105e-10    -6.933    -9.677    -2.744     17.03
   H+              1.216e-09   1.403e-06    -8.915    -5.853     3.062      0.00
   H2O             5.551e+01   2.563e-01     1.744    -0.591     0.000     18.02
Cl            1.224e+01
   Cl-             1.224e+01   1.804e+01     1.088     1.256     0.168     21.75
K             1.808e-03
   K+              1.808e-03   5.326e-03    -2.743    -2.274     0.469     20.35
Mg            6.120e+00
   Mg+2            6.116e+00   1.000e+03     0.786     6.305     5.519    -13.94
   MgOH+           3.255e-03   5.293e-02    -2.487    -1.276     1.211     (0)  

------------------------------Saturation indices-------------------------------

	Phase               SI   log IAP   log K(273 K,   1 atm)

	Bischofite        0.73      5.27    4.54  MgCl2:6H2O
	Brucite          -1.84    -13.05  -11.21  Mg(OH)2
	Carnallite        0.00      4.25    4.25  KMgCl3:6H2O
	H2O(g)           -2.80     -0.59    2.21  H2O
	Sylvite          -1.64     -1.02    0.62  KCl


Reaction step 14.

Using solution 1.	
Using pure phase assemblage 1.	
Using temperature 1.	
Using reaction 1.	

Reaction 1.	

	  2.800e+00 moles of the following reaction have been added:

	                 Relative
	Reactant            moles

	KCl                  1.00000

	                 Relative
	Element             moles
	Cl                   1.00000
	K                    1.00000

-------------------------------Phase assemblage--------------------------------

                                                      Moles in assemblage
Phase               SI  log IAP  log K(T, P)   Initial       Final       Delta

Carnallite        0.00     4.25      4.25    1.000e+01   1.280e+01   2.801e+00

-----------------------------Solution composition------------------------------

	Elements           Molality       Moles

	Cl                1.204e+01   8.398e+00
	K                 2.202e-03   1.535e-03
	Mg                6.023e+00   4.199e+00

----------------------------Description of solution----------------------------

                                       pH  =   5.941      Charge balance
                                       pe  =   4.000      Adjusted to redox equilibrium
       Specific Conductance (uS/cm, 0 oC) = 780471
                          Density (g/cm3)  =   1.33684
                               Volume (L)  =   0.82069
                        Activity of water  =   0.268
                           Ionic strength  =   1.806e+01
                       Mass of water (kg)  =   6.972e-01
                 Total alkalinity (eq/kg)  =   3.356e-03
                    Total carbon (mol/kg)  =   0.000e+00
                       Total CO2 (mol/kg)  =   0.000e+00
                      Temperature (deg C)  =   0.00
                  Electrical balance (eq)  =  -6.061e-12
 Percent error, 100*(Cat-|An|)/(Cat+|An|)  =  -0.00
                               Iterations  =  26
                         Gamma iterations  =   9
                      Osmotic coefficient  =   4.04907
                         Density of water  =   0.99984
                                  Total H  = 7.740512e+01
                                  Total O  = 3.870373e+01

----------------------------Distribution of species----------------------------

                                                    MacInnes  MacInnes
                                MacInnes       Log       Log       Log    mole V
   Species          Molality    Activity  Molality  Activity     Gamma   cm3/mol

   OH-             1.389e-07   2.694e-10    -6.857    -9.570    -2.712     16.69
   H+              1.118e-09   1.145e-06    -8.951    -5.941     3.010      0.00
   H2O             5.551e+01   2.677e-01     1.744    -0.572     0.000     18.02
Cl            1.204e+01
   Cl-             1.204e+01   1.719e+01     1.081     1.235     0.154     21.69
K             2.202e-03
   K+              2.202e-03   6.407e-03    -2.657    -2.193     0.464     20.16
Mg            6.023e+00
   Mg+2            6.019e+00   1.000e+03     0.780     6.175     5.395    -14.02
   MgOH+           3.356e-03   5.014e-02    -2.474    -1.300     1.174     (0)  

------------------------------Saturation indices-------------------------------

	Phase               SI   log IAP   log K(273 K,   1 atm)

	Bischofite        0.67      5.21    4.54  MgCl2:6H2O
	Brucite          -1.76    -12.96  -11.21  Mg(OH)2
	Carnallite        0.00      4.25    4.25  KMgCl3:6H2O
	H2O(g)           -2.78     -0.57    2.21  H2O
	Sylvite          -1.58     -0.96    0.62  KCl


Reaction step 15.

Using solution 1.	
Using pure phase assemblage 1.	
Using temperature 1.	
Using reaction 1.	

Reaction 1.	

	  3.000e+00 moles of the following reaction have been added:

	                 Relative
	Reactant            moles

	KCl                  1.00000

	                 Relative
	Element             moles
	Cl                   1.00000
	K                    1.00000

-------------------------------Phase assemblage--------------------------------

                                                      Moles in assemblage
Phase               SI  log IAP  log K(T, P)   Initial       Final       Delta

Carnallite        0.00     4.25      4.25    1.000e+01   1.300e+01   3.000e+00

-----------------------------Solution composition------------------------------

	Elements           Molality       Moles

	Cl                1.184e+01   7.999e+00
	K                 2.729e-03   1.844e-03
	Mg                5.919e+00   4.000e+00

----------------------------Description of solution----------------------------

                                       pH  =   6.035      Charge balance
                                       pe  =   4.000      Adjusted to redox equilibrium
       Specific Conductance (uS/cm, 0 oC) = 767132
                          Density (g/cm3)  =   1.33337
                               Volume (L)  =   0.79239
                        Activity of water  =   0.280
                           Ionic strength  =   1.775e+01
                       Mass of water (kg)  =   6.757e-01
                 Total alkalinity (eq/kg)  =   3.463e-03
                    Total carbon (mol/kg)  =   0.000e+00
                       Total CO2 (mol/kg)  =   0.000e+00
                      Temperature (deg C)  =   0.00
                  Electrical balance (eq)  =  -3.999e-08
 Percent error, 100*(Cat-|An|)/(Cat+|An|)  =  -0.00
                               Iterations  =  28
                         Gamma iterations  =  10
                      Osmotic coefficient  =   3.97788
                         Density of water  =   0.99984
                                  Total H  = 7.500882e+01
                                  Total O  = 3.750558e+01

----------------------------Distribution of species----------------------------

                                                    MacInnes  MacInnes
                                MacInnes       Log       Log       Log    mole V
   Species          Molality    Activity  Molality  Activity     Gamma   cm3/mol

   OH-             1.668e-07   3.500e-10    -6.778    -9.456    -2.678     16.34
   H+              1.022e-09   9.220e-07    -8.990    -6.035     2.955      0.00
   H2O             5.551e+01   2.801e-01     1.744    -0.553     0.000     18.02
Cl            1.184e+01
   Cl-             1.184e+01   1.633e+01     1.073     1.213     0.140     21.63
K             2.729e-03
   K+              2.729e-03   7.830e-03    -2.564    -2.106     0.458     19.96
Mg            5.919e+00
   Mg+2            5.916e+00   1.000e+03     0.772     6.036     5.264    -14.12
   MgOH+           3.463e-03   4.736e-02    -2.461    -1.325     1.136     (0)  

------------------------------Saturation indices-------------------------------

	Phase               SI   log IAP   log K(273 K,   1 atm)

	Bischofite        0.61      5.15    4.54  MgCl2:6H2O
	Brucite          -1.67    -12.88  -11.21  Mg(OH)2
	Carnallite        0.00      4.25    4.25  KMgCl3:6H2O
	H2O(g)           -2.76     -0.55    2.21  H2O
	Sylvite          -1.51     -0.89    0.62  KCl


Reaction step 16.

Using solution 1.	
Using pure phase assemblage 1.	
Using temperature 1.	
Using reaction 1.	

Reaction 1.	

	  3.200e+00 moles of the following reaction have been added:

	                 Relative
	Reactant            moles

	KCl                  1.00000

	                 Relative
	Element             moles
	Cl                   1.00000
	K                    1.00000

-------------------------------Phase assemblage--------------------------------

                                                      Moles in assemblage
Phase               SI  log IAP  log K(T, P)   Initial       Final       Delta

Carnallite        0.00     4.25      4.25    1.000e+01   1.320e+01   3.200e+00

-----------------------------Solution composition------------------------------

	Elements           Molality       Moles

	Cl                1.162e+01   7.600e+00
	K                 3.448e-03   2.255e-03
	Mg                5.810e+00   3.800e+00

----------------------------Description of solution----------------------------

                                       pH  =   6.136      Charge balance
                                       pe  =   4.000      Adjusted to redox equilibrium
       Specific Conductance (uS/cm, 0 oC) = 752932
                          Density (g/cm3)  =   1.32969
                               Volume (L)  =   0.76409
                        Activity of water  =   0.294
                           Ionic strength  =   1.742e+01
                       Mass of water (kg)  =   6.541e-01
                 Total alkalinity (eq/kg)  =   3.578e-03
                    Total carbon (mol/kg)  =   0.000e+00
                       Total CO2 (mol/kg)  =   0.000e+00
                      Temperature (deg C)  =   0.00
                  Electrical balance (eq)  =  -3.314e-08
 Percent error, 100*(Cat-|An|)/(Cat+|An|)  =  -0.00
                               Iterations  =  31
                         Gamma iterations  =  11
                      Osmotic coefficient  =   3.90245
                         Density of water  =   0.99984
                                  Total H  = 7.261376e+01
                                  Total O  = 3.630805e+01

----------------------------Distribution of species----------------------------

                                                    MacInnes  MacInnes
                                MacInnes       Log       Log       Log    mole V
   Species          Molality    Activity  Molality  Activity     Gamma   cm3/mol

   OH-             2.025e-07   4.624e-10    -6.694    -9.335    -2.641     15.93
   H+              9.291e-10   7.317e-07    -9.032    -6.136     2.896      0.00
   H2O             5.551e+01   2.936e-01     1.744    -0.532     0.000     18.02
Cl            1.162e+01
   Cl-             1.162e+01   1.547e+01     1.065     1.189     0.124     21.56
K             3.448e-03
   K+              3.448e-03   9.739e-03    -2.462    -2.011     0.451     19.73
Mg            5.810e+00
   Mg+2            5.806e+00   1.000e+03     0.764     5.889     5.125    -14.22
   MgOH+           3.577e-03   4.458e-02    -2.446    -1.351     1.096     (0)  

------------------------------Saturation indices-------------------------------

	Phase               SI   log IAP   log K(273 K,   1 atm)

	Bischofite        0.53      5.07    4.54  MgCl2:6H2O
	Brucite          -1.58    -12.78  -11.21  Mg(OH)2
	Carnallite        0.00      4.25    4.25  KMgCl3:6H2O
	H2O(g)           -2.74     -0.53    2.21  H2O
	Sylvite          -1.44     -0.82    0.62  KCl


Reaction step 17.

Using solution 1.	
Using pure phase assemblage 1.	
Using temperature 1.	
Using reaction 1.	

Reaction 1.	

	  3.400e+00 moles of the following reaction have been added:

	                 Relative
	Reactant            moles

	KCl                  1.00000

	                 Relative
	Element             moles
	Cl                   1.00000
	K                    1.00000

-------------------------------Phase assemblage--------------------------------

                                                      Moles in assemblage
Phase               SI  log IAP  log K(T, P)   Initial       Final       Delta

Carnallite       -0.00     4.25      4.25    1.000e+01   1.340e+01   3.400e+00

-----------------------------Solution composition------------------------------

	Elements           Molality       Moles

	Cl                1.139e+01   7.201e+00
	K                 4.452e-03   2.816e-03
	Mg                5.692e+00   3.600e+00

----------------------------Description of solution----------------------------

                                       pH  =   6.243      Charge balance
                                       pe  =   4.000      Adjusted to redox equilibrium
       Specific Conductance (uS/cm, 0 oC) = 737792
                          Density (g/cm3)  =   1.32562
                               Volume (L)  =   0.73588
                        Activity of water  =   0.308
                           Ionic strength  =   1.707e+01
                       Mass of water (kg)  =   6.325e-01
                 Total alkalinity (eq/kg)  =   3.700e-03
                    Total carbon (mol/kg)  =   0.000e+00
                       Total CO2 (mol/kg)  =   0.000e+00
                      Temperature (deg C)  =   0.00
                  Electrical balance (eq)  =  -3.263e-08
 Percent error, 100*(Cat-|An|)/(Cat+|An|)  =  -0.00
                               Iterations  =  33
                         Gamma iterations  =  12
                      Osmotic coefficient  =   3.82240
                         Density of water  =   0.99984
                                  Total H  = 7.022049e+01
                                  Total O  = 3.511141e+01

----------------------------Distribution of species----------------------------

                                                    MacInnes  MacInnes
                                MacInnes       Log       Log       Log    mole V
   Species          Molality    Activity  Molality  Activity     Gamma   cm3/mol

   OH-             2.490e-07   6.220e-10    -6.604    -9.206    -2.602     15.52
   H+              8.386e-10   5.713e-07    -9.076    -6.243     2.833      0.00
   H2O             5.551e+01   3.084e-01     1.744    -0.511     0.000     18.02
Cl            1.139e+01
   Cl-             1.139e+01   1.460e+01     1.056     1.164     0.108     21.49
K             4.452e-03
   K+              4.452e-03   1.235e-02    -2.351    -1.908     0.443     19.50
Mg            5.692e+00
   Mg+2            5.689e+00   1.000e+03     0.755     5.733     4.978    -14.33
   MgOH+           3.699e-03   4.183e-02    -2.432    -1.378     1.053     (0)  

------------------------------Saturation indices-------------------------------

	Phase               SI   log IAP   log K(273 K,   1 atm)

	Bischofite        0.46      5.00    4.54  MgCl2:6H2O
	Brucite          -1.47    -12.68  -11.21  Mg(OH)2
	Carnallite       -0.00      4.25    4.25  KMgCl3:6H2O
	H2O(g)           -2.72     -0.51    2.21  H2O
	Sylvite          -1.36     -0.74    0.62  KCl


Reaction step 18.

Using solution 1.	
Using pure phase assemblage 1.	
Using temperature 1.	
Using reaction 1.	

Reaction 1.	

	  3.600e+00 moles of the following reaction have been added:

	                 Relative
	Reactant            moles

	KCl                  1.00000

	                 Relative
	Element             moles
	Cl                   1.00000
	K                    1.00000

-------------------------------Phase assemblage--------------------------------

                                                      Moles in assemblage
Phase               SI  log IAP  log K(T, P)   Initial       Final       Delta

Carnallite        0.00     4.25      4.25    1.000e+01   1.360e+01   3.599e+00

-----------------------------Solution composition------------------------------

	Elements           Molality       Moles

	Cl                1.114e+01   6.804e+00
	K                 5.891e-03   3.599e-03
	Mg                5.567e+00   3.401e+00

----------------------------Description of solution----------------------------

                                       pH  =   6.358      Charge balance
                                       pe  =   4.000      Adjusted to redox equilibrium
       Specific Conductance (uS/cm, 0 oC) = 721631
                          Density (g/cm3)  =   1.32117
                               Volume (L)  =   0.70775
                        Activity of water  =   0.325
                           Ionic strength  =   1.670e+01
                       Mass of water (kg)  =   6.110e-01
                 Total alkalinity (eq/kg)  =   3.830e-03
                    Total carbon (mol/kg)  =   0.000e+00
                       Total CO2 (mol/kg)  =   0.000e+00
                      Temperature (deg C)  =   0.00
                  Electrical balance (eq)  =  -4.150e-08
 Percent error, 100*(Cat-|An|)/(Cat+|An|)  =  -0.00
                               Iterations  =  35
                         Gamma iterations  =  13
                      Osmotic coefficient  =   3.73732
                         Density of water  =   0.99984
                                  Total H  = 6.782988e+01
                                  Total O  = 3.391611e+01

----------------------------Distribution of species----------------------------

                                                    MacInnes  MacInnes
                                MacInnes       Log       Log       Log    mole V
   Species          Molality    Activity  Molality  Activity     Gamma   cm3/mol

   OH-             3.102e-07   8.536e-10    -6.508    -9.069    -2.560     15.07
   H+              7.512e-10   4.383e-07    -9.124    -6.358     2.766      0.00
   H2O             5.551e+01   3.247e-01     1.744    -0.489     0.000     18.02
Cl            1.114e+01
   Cl-             1.114e+01   1.373e+01     1.047     1.138     0.091     21.41
K             5.891e-03
   K+              5.891e-03   1.602e-02    -2.230    -1.795     0.435     19.25
Mg            5.567e+00
   Mg+2            5.563e+00   1.000e+03     0.745     5.566     4.821    -14.44
   MgOH+           3.830e-03   3.911e-02    -2.417    -1.408     1.009     (0)  

------------------------------Saturation indices-------------------------------

	Phase               SI   log IAP   log K(273 K,   1 atm)

	Bischofite        0.37      4.91    4.54  MgCl2:6H2O
	Brucite          -1.37    -12.57  -11.21  Mg(OH)2
	Carnallite        0.00      4.25    4.25  KMgCl3:6H2O
	H2O(g)           -2.70     -0.49    2.21  H2O
	Sylvite          -1.28     -0.66    0.62  KCl


Reaction step 19.

Using solution 1.	
Using pure phase assemblage 1.	
Using temperature 1.	
Using reaction 1.	

Reaction 1.	

	  3.800e+00 moles of the following reaction have been added:

	                 Relative
	Reactant            moles

	KCl                  1.00000

	                 Relative
	Element             moles
	Cl                   1.00000
	K                    1.00000

-------------------------------Phase assemblage--------------------------------

                                                      Moles in assemblage
Phase               SI  log IAP  log K(T, P)   Initial       Final       Delta

Carnallite        0.00     4.25      4.25    1.000e+01   1.380e+01   3.798e+00

-----------------------------Solution composition------------------------------

	Elements           Molality       Moles

	Cl                1.087e+01   6.407e+00
	K                 8.011e-03   4.723e-03
	Mg                5.432e+00   3.202e+00

----------------------------Description of solution----------------------------

                                       pH  =   6.482      Charge balance
                                       pe  =   4.000      Adjusted to redox equilibrium
       Specific Conductance (uS/cm, 0 oC) = 704363
                          Density (g/cm3)  =   1.31628
                               Volume (L)  =   0.67972
                        Activity of water  =   0.342
                           Ionic strength  =   1.630e+01
                       Mass of water (kg)  =   5.895e-01
                 Total alkalinity (eq/kg)  =   3.970e-03
                    Total carbon (mol/kg)  =   0.000e+00
                       Total CO2 (mol/kg)  =   0.000e+00
                      Temperature (deg C)  =   0.00
                  Electrical balance (eq)  =  -8.089e-12
 Percent error, 100*(Cat-|An|)/(Cat+|An|)  =  -0.00
                               Iterations  =  39
                         Gamma iterations  =  14
                      Osmotic coefficient  =   3.64677
                         Density of water  =   0.99984
                                  Total H  = 6.544336e+01
                                  Total O  = 3.272285e+01

----------------------------Distribution of species----------------------------

                                                    MacInnes  MacInnes
                                MacInnes       Log       Log       Log    mole V
   Species          Molality    Activity  Molality  Activity     Gamma   cm3/mol

   OH-             3.921e-07   1.197e-09    -6.407    -8.922    -2.515     14.60
   H+              6.674e-10   3.296e-07    -9.176    -6.482     2.694      0.00
   H2O             5.551e+01   3.425e-01     1.744    -0.465     0.000     18.02
Cl            1.087e+01
   Cl-             1.087e+01   1.286e+01     1.036     1.109     0.073     21.33
K             8.011e-03
   K+              8.011e-03   2.131e-02    -2.096    -1.672     0.425     18.98
Mg            5.432e+00
   Mg+2            5.428e+00   1.000e+03     0.735     5.388     4.654    -14.56
   MgOH+           3.969e-03   3.644e-02    -2.401    -1.438     0.963     (0)  

------------------------------Saturation indices-------------------------------

	Phase               SI   log IAP   log K(273 K,   1 atm)

	Bischofite        0.27      4.81    4.54  MgCl2:6H2O
	Brucite          -1.25    -12.46  -11.21  Mg(OH)2
	Carnallite        0.00      4.25    4.25  KMgCl3:6H2O
	H2O(g)           -2.68     -0.47    2.21  H2O
	Sylvite          -1.18     -0.56    0.62  KCl


Reaction step 20.

Using solution 1.	
Using pure phase assemblage 1.	
Using temperature 1.	
Using reaction 1.	

Reaction 1.	

	  4.000e+00 moles of the following reaction have been added:

	                 Relative
	Reactant            moles

	KCl                  1.00000

	                 Relative
	Element             moles
	Cl                   1.00000
	K                    1.00000

-------------------------------Phase assemblage--------------------------------

                                                      Moles in assemblage
Phase               SI  log IAP  log K(T, P)   Initial       Final       Delta

Carnallite        0.00     4.25      4.25    1.000e+01   1.400e+01   3.996e+00

-----------------------------Solution composition------------------------------

	Elements           Molality       Moles

	Cl                1.058e+01   6.012e+00
	K                 1.124e-02   6.384e-03
	Mg                5.288e+00   3.004e+00

----------------------------Description of solution----------------------------

                                       pH  =   6.615      Charge balance
                                       pe  =   4.000      Adjusted to redox equilibrium
       Specific Conductance (uS/cm, 0 oC) = 685911
                          Density (g/cm3)  =   1.31092
                               Volume (L)  =   0.65184
                        Activity of water  =   0.362
                           Ionic strength  =   1.587e+01
                       Mass of water (kg)  =   5.681e-01
                 Total alkalinity (eq/kg)  =   4.119e-03
                    Total carbon (mol/kg)  =   0.000e+00
                       Total CO2 (mol/kg)  =   0.000e+00
                      Temperature (deg C)  =   0.00
                  Electrical balance (eq)  =  -1.701e-11
 Percent error, 100*(Cat-|An|)/(Cat+|An|)  =  -0.00
                               Iterations  =  43
                         Gamma iterations  =  15
                      Osmotic coefficient  =   3.55027
                         Density of water  =   0.99984
                                  Total H  = 6.306330e+01
                                  Total O  = 3.153282e+01

----------------------------Distribution of species----------------------------

                                                    MacInnes  MacInnes
                                MacInnes       Log       Log       Log    mole V
   Species          Molality    Activity  Molality  Activity     Gamma   cm3/mol

   OH-             5.033e-07   1.720e-09    -6.298    -8.765    -2.466     14.09
   H+              5.874e-10   2.426e-07    -9.231    -6.615     2.616      0.00
   H2O             5.551e+01   3.621e-01     1.744    -0.441     0.000     18.02
Cl            1.058e+01
   Cl-             1.058e+01   1.199e+01     1.025     1.079     0.054     21.24
K             1.124e-02
   K+              1.124e-02   2.913e-02    -1.949    -1.536     0.414     18.70
Mg            5.288e+00
   Mg+2            5.284e+00   1.000e+03     0.723     5.199     4.476    -14.69
   MgOH+           4.119e-03   3.382e-02    -2.385    -1.471     0.914     (0)  

------------------------------Saturation indices-------------------------------

	Phase               SI   log IAP   log K(273 K,   1 atm)

	Bischofite        0.17      4.71    4.54  MgCl2:6H2O
	Brucite          -1.13    -12.33  -11.21  Mg(OH)2
	Carnallite        0.00      4.25    4.25  KMgCl3:6H2O
	H2O(g)           -2.65     -0.44    2.21  H2O
	Sylvite          -1.07     -0.46    0.62  KCl


Reaction step 21.

Using solution 1.	
Using pure phase assemblage 1.	
Using temperature 1.	
Using reaction 1.	

Reaction 1.	

	  4.200e+00 moles of the following reaction have been added:

	                 Relative
	Reactant            moles

	KCl                  1.00000

	                 Relative
	Element             moles
	Cl                   1.00000
	K                    1.00000

-------------------------------Phase assemblage--------------------------------

                                                      Moles in assemblage
Phase               SI  log IAP  log K(T, P)   Initial       Final       Delta

Carnallite        0.00     4.25      4.25    1.000e+01   1.419e+01   4.193e+00

-----------------------------Solution composition------------------------------

	Elements           Molality       Moles

	Cl                1.028e+01   5.620e+00
	K                 1.632e-02   8.922e-03
	Mg                5.134e+00   2.807e+00

----------------------------Description of solution----------------------------

                                       pH  =   6.758      Charge balance
                                       pe  =   4.000      Adjusted to redox equilibrium
       Specific Conductance (uS/cm, 0 oC) = 666225
                          Density (g/cm3)  =   1.30501
                               Volume (L)  =   0.62417
                        Activity of water  =   0.384
                           Ionic strength  =   1.541e+01
                       Mass of water (kg)  =   5.467e-01
                 Total alkalinity (eq/kg)  =   4.280e-03
                    Total carbon (mol/kg)  =   0.000e+00
                       Total CO2 (mol/kg)  =   0.000e+00
                      Temperature (deg C)  =   0.00
                  Electrical balance (eq)  =  -4.127e-11
 Percent error, 100*(Cat-|An|)/(Cat+|An|)  =  -0.00
                               Iterations  =  45
                         Gamma iterations  =  16
                      Osmotic coefficient  =   3.44735
                         Density of water  =   0.99984
                                  Total H  = 6.069376e+01
                                  Total O  = 3.034805e+01

----------------------------Distribution of species----------------------------

                                                    MacInnes  MacInnes
                                MacInnes       Log       Log       Log    mole V
   Species          Molality    Activity  Molality  Activity     Gamma   cm3/mol

   OH-             6.568e-07   2.534e-09    -6.183    -8.596    -2.414     13.54
   H+              5.118e-10   1.744e-07    -9.291    -6.758     2.533      0.00
   H2O             5.551e+01   3.836e-01     1.744    -0.416     0.000     18.02
Cl            1.028e+01
   Cl-             1.028e+01   1.113e+01     1.012     1.047     0.035     21.14
K             1.632e-02
   K+              1.632e-02   4.108e-02    -1.787    -1.386     0.401     18.39
Mg            5.134e+00
   Mg+2            5.129e+00   1.000e+03     0.710     4.996     4.286    -14.83
   MgOH+           4.280e-03   3.126e-02    -2.369    -1.505     0.864     (0)  

------------------------------Saturation indices-------------------------------

	Phase               SI   log IAP   log K(273 K,   1 atm)

	Bischofite        0.05      4.59    4.54  MgCl2:6H2O
	Brucite          -0.99    -12.20  -11.21  Mg(OH)2
	Carnallite        0.00      4.25    4.25  KMgCl3:6H2O
	H2O(g)           -2.63     -0.42    2.21  H2O
	Sylvite          -0.96     -0.34    0.62  KCl


Reaction step 22.

Using solution 1.	
Using pure phase assemblage 1.	
Using temperature 1.	
Using reaction 1.	

Reaction 1.	

	  4.400e+00 moles of the following reaction have been added:

	                 Relative
	Reactant            moles

	KCl                  1.00000

	                 Relative
	Element             moles
	Cl                   1.00000
	K                    1.00000

-------------------------------Phase assemblage--------------------------------

                                                      Moles in assemblage
Phase               SI  log IAP  log K(T, P)   Initial       Final       Delta

Carnallite        0.00     4.25      4.25    1.000e+01   1.439e+01   4.389e+00

[...]
                       Mass of water (kg)  =   5.130e-01
                 Total alkalinity (eq/kg)  =   4.562e-03
                    Total carbon (mol/kg)  =   0.000e+00
                       Total CO2 (mol/kg)  =   0.000e+00
                      Temperature (deg C)  =  75.00
                  Electrical balance (eq)  =  -3.784e-08
 Percent error, 100*(Cat-|An|)/(Cat+|An|)  =  -0.00
                               Iterations  =  71
                         Gamma iterations  =  22
                      Osmotic coefficient  =   2.50721
                         Density of water  =   0.97485
                                  Total H  = 5.694849e+01
                                  Total O  = 2.847541e+01

----------------------------Distribution of species----------------------------

                                                    MacInnes  MacInnes
                                MacInnes       Log       Log       Log    mole V
   Species          Molality    Activity  Molality  Activity     Gamma   cm3/mol

   OH-             2.244e-06   1.461e-08    -5.649    -7.835    -2.186     18.52
   H+              5.821e-08   6.662e-06    -7.235    -5.176     2.059      0.00
   H2O             5.551e+01   4.742e-01     1.744    -0.324     0.000     18.48
Cl            1.069e+01
   Cl-             1.069e+01   7.500e+00     1.029     0.875    -0.154     21.03
K             9.685e-01
   K+              9.685e-01   2.219e+00    -0.014     0.346     0.360     14.75
Mg            4.863e+00
   Mg+2            4.858e+00   1.000e+03     0.686     3.330     2.644    -16.30
   MgOH+           4.560e-03   9.924e-03    -2.341    -2.003     0.338     (0)  

------------------------------Saturation indices-------------------------------

	Phase               SI   log IAP   log K(348 K,   1 atm)

	Bischofite       -1.19      3.14    4.32  MgCl2:6H2O
	Brucite          -1.97    -12.34  -10.37  Mg(OH)2
	Carnallite        0.00      4.36    4.36  KMgCl3:6H2O
	H2O(g)           -0.75     -0.32    0.42  H2O
	Sylvite          -0.12      1.22    1.34  KCl


Reaction step 26.

Using solution 1.	
Using pure phase assemblage 1.	
Using temperature 1.	
Using reaction 1.	

Reaction 1.	

	  5.200e+00 moles of the following reaction have been added:

	                 Relative
	Reactant            moles

	KCl                  1.00000

	                 Relative
	Element             moles
	Cl                   1.00000
	K                    1.00000

-------------------------------Phase assemblage--------------------------------

                                                      Moles in assemblage
Phase               SI  log IAP  log K(T, P)   Initial       Final       Delta

Carnallite        0.00     4.36      4.36    1.000e+01   1.463e+01   4.626e+00

-----------------------------Solution composition------------------------------

	Elements           Molality       Moles

	Cl                1.064e+01   5.321e+00
	K                 1.152e+00   5.760e-01
	Mg                4.748e+00   2.374e+00

----------------------------Description of solution----------------------------

                                       pH  =   5.240      Charge balance
                                       pe  =   4.000      Adjusted to redox equilibrium
       Specific Conductance (uS/cm, 75 oC) = 1863668
                          Density (g/cm3)  =   1.29352
                               Volume (L)  =   0.59435
                        Activity of water  =   0.483
                           Ionic strength  =   1.539e+01
                       Mass of water (kg)  =   4.999e-01
                 Total alkalinity (eq/kg)  =   4.681e-03
                    Total carbon (mol/kg)  =   0.000e+00
                       Total CO2 (mol/kg)  =   0.000e+00
                      Temperature (deg C)  =  75.00
                  Electrical balance (eq)  =  -5.000e-10
 Percent error, 100*(Cat-|An|)/(Cat+|An|)  =  -0.00
                               Iterations  =  72
                         Gamma iterations  =  23
                      Osmotic coefficient  =   2.44453
                         Density of water  =   0.97485
                                  Total H  = 5.549825e+01
                                  Total O  = 2.775029e+01

----------------------------Distribution of species----------------------------

                                                    MacInnes  MacInnes
                                MacInnes       Log       Log       Log    mole V
   Species          Molality    Activity  Molality  Activity     Gamma   cm3/mol

   OH-             2.324e-06   1.720e-08    -5.634    -7.764    -2.131     18.30
   H+              5.612e-08   5.757e-06    -7.251    -5.240     2.011      0.00
   H2O             5.551e+01   4.826e-01     1.744    -0.316     0.000     18.48
Cl            1.064e+01
   Cl-             1.064e+01   7.486e+00     1.027     0.874    -0.153     21.02
K             1.152e+00
   K+              1.152e+00   2.521e+00     0.062     0.402     0.340     14.70
Mg            4.748e+00
   Mg+2            4.743e+00   1.000e+03     0.676     3.231     2.555    -16.36
   MgOH+           4.679e-03   9.305e-03    -2.330    -2.031     0.299     (0)  

------------------------------Saturation indices-------------------------------

	Phase               SI   log IAP   log K(348 K,   1 atm)

	Bischofite       -1.24      3.08    4.32  MgCl2:6H2O
	Brucite          -1.93    -12.30  -10.37  Mg(OH)2
	Carnallite        0.00      4.36    4.36  KMgCl3:6H2O
	H2O(g)           -0.74     -0.32    0.42  H2O
	Sylvite          -0.07      1.28    1.34  KCl


Reaction step 27.

Using solution 1.	
Using pure phase assemblage 1.	
Using temperature 1.	
Using reaction 1.	

Reaction 1.	

	  5.400e+00 moles of the following reaction have been added:

	                 Relative
	Reactant            moles

	KCl                  1.00000

	                 Relative
	Element             moles
	Cl                   1.00000
	K                    1.00000

-------------------------------Phase assemblage--------------------------------

                                                      Moles in assemblage
Phase               SI  log IAP  log K(T, P)   Initial       Final       Delta

Carnallite        0.00     4.36      4.36    1.000e+01   1.474e+01   4.739e+00

-----------------------------Solution composition------------------------------

	Elements           Molality       Moles

	Cl                1.063e+01   5.182e+00
	K                 1.360e+00   6.630e-01
	Mg                4.635e+00   2.261e+00

----------------------------Description of solution----------------------------

                                       pH  =   5.298      Charge balance
                                       pe  =   4.000      Adjusted to redox equilibrium
       Specific Conductance (uS/cm, 75 oC) = 1877063
                          Density (g/cm3)  =   1.29291
                               Volume (L)  =   0.58189
                        Activity of water  =   0.490
                           Ionic strength  =   1.526e+01
                       Mass of water (kg)  =   4.877e-01
                 Total alkalinity (eq/kg)  =   4.798e-03
                    Total carbon (mol/kg)  =   0.000e+00
                       Total CO2 (mol/kg)  =   0.000e+00
                      Temperature (deg C)  =  75.00
                  Electrical balance (eq)  =  -2.911e-09
 Percent error, 100*(Cat-|An|)/(Cat+|An|)  =  -0.00
                               Iterations  =  72
                         Gamma iterations  =  23
                      Osmotic coefficient  =   2.38252
                         Density of water  =   0.97485
                                  Total H  = 5.414319e+01
                                  Total O  = 2.707276e+01

----------------------------Distribution of species----------------------------

                                                    MacInnes  MacInnes
                                MacInnes       Log       Log       Log    mole V
   Species          Molality    Activity  Molality  Activity     Gamma   cm3/mol

   OH-             2.370e-06   1.996e-08    -5.625    -7.700    -2.075     18.13
   H+              5.430e-08   5.038e-06    -7.265    -5.298     1.967      0.00
   H2O             5.551e+01   4.900e-01     1.744    -0.310     0.000     18.48
Cl            1.063e+01
   Cl-             1.063e+01   7.488e+00     1.026     0.874    -0.152     21.02
K             1.360e+00
   K+              1.360e+00   2.845e+00     0.133     0.454     0.321     14.67
Mg            4.635e+00
   Mg+2            4.631e+00   1.000e+03     0.666     3.139     2.473    -16.40
   MgOH+           4.796e-03   8.729e-03    -2.319    -2.059     0.260     (0)  

------------------------------Saturation indices-------------------------------

	Phase               SI   log IAP   log K(348 K,   1 atm)

	Bischofite       -1.29      3.03    4.32  MgCl2:6H2O
	Brucite          -1.89    -12.26  -10.37  Mg(OH)2
	Carnallite        0.00      4.36    4.36  KMgCl3:6H2O
	H2O(g)           -0.73     -0.31    0.42  H2O
	Sylvite          -0.01      1.33    1.34  KCl


Reaction step 28.

Using solution 1.	
Using pure phase assemblage 1.	
Using temperature 1.	
Using reaction 1.	

Reaction 1.	

	  5.600e+00 moles of the following reaction have been added:

	                 Relative
	Reactant            moles

	KCl                  1.00000

	                 Relative
	Element             moles
	Cl                   1.00000
	K                    1.00000

-------------------------------Phase assemblage--------------------------------

                                                      Moles in assemblage
Phase               SI  log IAP  log K(T, P)   Initial       Final       Delta

Carnallite        0.00     4.36      4.36    1.000e+01   1.484e+01   4.845e+00

-----------------------------Solution composition------------------------------

	Elements           Molality       Moles

	Cl                1.064e+01   5.065e+00
	K                 1.590e+00   7.575e-01
	Mg                4.525e+00   2.155e+00

----------------------------Description of solution----------------------------

                                       pH  =   5.350      Charge balance
                                       pe  =   4.000      Adjusted to redox equilibrium
       Specific Conductance (uS/cm, 75 oC) = 1894749
                          Density (g/cm3)  =   1.29288
                               Volume (L)  =   0.57075
                        Activity of water  =   0.496
                           Ionic strength  =   1.516e+01
                       Mass of water (kg)  =   4.763e-01
                 Total alkalinity (eq/kg)  =   4.913e-03
                    Total carbon (mol/kg)  =   0.000e+00
                       Total CO2 (mol/kg)  =   0.000e+00
                      Temperature (deg C)  =  75.00
                  Electrical balance (eq)  =  -1.571e-11
 Percent error, 100*(Cat-|An|)/(Cat+|An|)  =  -0.00
                               Iterations  =  75
                         Gamma iterations  =  23
                      Osmotic coefficient  =   2.32150
                         Density of water  =   0.97485
                                  Total H  = 5.287634e+01
                                  Total O  = 2.643934e+01

----------------------------Distribution of species----------------------------

                                                    MacInnes  MacInnes
                                MacInnes       Log       Log       Log    mole V
   Species          Molality    Activity  Molality  Activity     Gamma   cm3/mol

   OH-             2.381e-06   2.282e-08    -5.623    -7.642    -2.018     18.00
   H+              5.272e-08   4.464e-06    -7.278    -5.350     1.928      0.00
   H2O             5.551e+01   4.963e-01     1.744    -0.304     0.000     18.48
Cl            1.064e+01
   Cl-             1.064e+01   7.505e+00     1.027     0.875    -0.151     21.02
K             1.590e+00
   K+              1.590e+00   3.187e+00     0.201     0.503     0.302     14.65
Mg            4.525e+00
   Mg+2            4.520e+00   1.000e+03     0.655     3.053     2.398    -16.44
   MgOH+           4.911e-03   8.189e-03    -2.309    -2.087     0.222     (0)  

------------------------------Saturation indices-------------------------------

	Phase               SI   log IAP   log K(348 K,   1 atm)

	Bischofite       -1.34      2.98    4.32  MgCl2:6H2O
	Brucite          -1.86    -12.23  -10.37  Mg(OH)2
	Carnallite        0.00      4.36    4.36  KMgCl3:6H2O
	H2O(g)           -0.73     -0.30    0.42  H2O
	Sylvite           0.04      1.38    1.34  KCl


Reaction step 29.

Using solution 1.	
Using pure phase assemblage 1.	
Using temperature 1.	
Using reaction 1.	

Reaction 1.	

	  5.800e+00 moles of the following reaction have been added:

	                 Relative
	Reactant            moles

	KCl                  1.00000

	                 Relative
	Element             moles
	Cl                   1.00000
	K                    1.00000

-------------------------------Phase assemblage--------------------------------

                                                      Moles in assemblage
Phase               SI  log IAP  log K(T, P)   Initial       Final       Delta

Carnallite        0.00     4.36      4.36    1.000e+01   1.494e+01   4.944e+00

-----------------------------Solution composition------------------------------

	Elements           Molality       Moles

	Cl                1.067e+01   4.969e+00
	K                 1.844e+00   8.586e-01
	Mg                4.416e+00   2.056e+00

----------------------------Description of solution----------------------------

                                       pH  =   5.397      Charge balance
                                       pe  =   4.000      Adjusted to redox equilibrium
       Specific Conductance (uS/cm, 75 oC) = 1916746
                          Density (g/cm3)  =   1.29346
                               Volume (L)  =   0.56078
                        Activity of water  =   0.502
                           Ionic strength  =   1.508e+01
                       Mass of water (kg)  =   4.656e-01
                 Total alkalinity (eq/kg)  =   5.026e-03
                    Total carbon (mol/kg)  =   0.000e+00
                       Total CO2 (mol/kg)  =   0.000e+00
                      Temperature (deg C)  =  75.00
                  Electrical balance (eq)  =  -8.615e-10
 Percent error, 100*(Cat-|An|)/(Cat+|An|)  =  -0.00
                               Iterations  =  81
                         Gamma iterations  =  24
                      Osmotic coefficient  =   2.26172
                         Density of water  =   0.97485
                                  Total H  = 5.169007e+01
                                  Total O  = 2.584620e+01

----------------------------Distribution of species----------------------------

                                                    MacInnes  MacInnes
                                MacInnes       Log       Log       Log    mole V
   Species          Molality    Activity  Molality  Activity     Gamma   cm3/mol

   OH-             2.356e-06   2.571e-08    -5.628    -7.590    -1.962     17.91
   H+              5.138e-08   4.004e-06    -7.289    -5.397     1.892      0.00
   H2O             5.551e+01   5.016e-01     1.744    -0.300     0.000     18.48
Cl            1.067e+01
   Cl-             1.067e+01   7.538e+00     1.028     0.877    -0.151     21.01
K             1.844e+00
   K+              1.844e+00   3.545e+00     0.266     0.550     0.284     14.63
Mg            4.416e+00
   Mg+2            4.411e+00   9.408e+02     0.645     2.973     2.329    -16.46
   MgOH+           5.024e-03   7.682e-03    -2.299    -2.115     0.184     (0)  

------------------------------Saturation indices-------------------------------

	Phase               SI   log IAP   log K(348 K,   1 atm)

	Bischofite       -1.39      2.93    4.32  MgCl2:6H2O
	Brucite          -1.84    -12.21  -10.37  Mg(OH)2
	Carnallite        0.00      4.36    4.36  KMgCl3:6H2O
	H2O(g)           -0.72     -0.30    0.42  H2O
	Sylvite           0.08      1.43    1.34  KCl


Reaction step 30.

Using solution 1.	
Using pure phase assemblage 1.	
Using temperature 1.	
Using reaction 1.	

Reaction 1.	

	  6.000e+00 moles of the following reaction have been added:

	                 Relative
	Reactant            moles

	KCl                  1.00000

	                 Relative
	Element             moles
	Cl                   1.00000
	K                    1.00000

-------------------------------Phase assemblage--------------------------------

                                                      Moles in assemblage
Phase               SI  log IAP  log K(T, P)   Initial       Final       Delta

Carnallite        0.00     4.36      4.36    1.000e+01   1.504e+01   5.036e+00

-----------------------------Solution composition------------------------------

	Elements           Molality       Moles

	Cl                1.073e+01   4.891e+00
	K                 2.120e+00   9.658e-01
	Mg                4.310e+00   1.964e+00

----------------------------Description of solution----------------------------

                                       pH  =   5.440      Charge balance
                                       pe  =   4.000      Adjusted to redox equilibrium
       Specific Conductance (uS/cm, 75 oC) = 1942991
                          Density (g/cm3)  =   1.29459
                               Volume (L)  =   0.55190
                        Activity of water  =   0.506
                           Ionic strength  =   1.504e+01
                       Mass of water (kg)  =   4.556e-01
                 Total alkalinity (eq/kg)  =   5.137e-03
                    Total carbon (mol/kg)  =   0.000e+00
                       Total CO2 (mol/kg)  =   0.000e+00
                      Temperature (deg C)  =  75.00
                  Electrical balance (eq)  =  -9.806e-10
 Percent error, 100*(Cat-|An|)/(Cat+|An|)  =  -0.00
                               Iterations  =  78
                         Gamma iterations  =  24
                      Osmotic coefficient  =   2.20334
                         Density of water  =   0.97485
                                  Total H  = 5.057679e+01
                                  Total O  = 2.528956e+01

----------------------------Distribution of species----------------------------

                                                    MacInnes  MacInnes
                                MacInnes       Log       Log       Log    mole V
   Species          Molality    Activity  Molality  Activity     Gamma   cm3/mol

   OH-             2.299e-06   2.858e-08    -5.638    -7.544    -1.906     17.85
   H+              5.026e-08   3.634e-06    -7.299    -5.440     1.859      0.00
   H2O             5.551e+01   5.059e-01     1.744    -0.296     0.000     18.48
Cl            1.073e+01
   Cl-             1.073e+01   7.586e+00     1.031     0.880    -0.151     21.01
K             2.120e+00
   K+              2.120e+00   3.915e+00     0.326     0.593     0.266     14.62
Mg            4.310e+00
   Mg+2            4.305e+00   7.937e+02     0.634     2.900     2.266    -16.47
   MgOH+           5.134e-03   7.203e-03    -2.290    -2.142     0.147     (0)  

------------------------------Saturation indices-------------------------------

	Phase               SI   log IAP   log K(348 K,   1 atm)

	Bischofite       -1.44      2.88    4.32  MgCl2:6H2O
	Brucite          -1.82    -12.19  -10.37  Mg(OH)2
	Carnallite        0.00      4.36    4.36  KMgCl3:6H2O
	H2O(g)           -0.72     -0.30    0.42  H2O
	Sylvite           0.13      1.47    1.34  KCl


------------------
End of simulation.
------------------

------------------------------------
Reading input data for simulation 5.
------------------------------------

------------------------------
End of Run after 0.95 Seconds.
------------------------------

