   Input file: Carnallite
  Output file: Carnallite.out
Database file: ../database/pitzer.dat

------------------
Reading data base.
------------------

	SOLUTION_MASTER_SPECIES
	SOLUTION_SPECIES
	PHASES
	PITZER
	EXCHANGE_MASTER_SPECIES
	EXCHANGE_SPECIES
	SURFACE_MASTER_SPECIES
	SURFACE_SPECIES
	END
------------------------------------
Reading input data for simulation 1.
------------------------------------

	DATABASE ../database/pitzer.dat
	PITZER
	b0
	  Mg+2  Cl-  0.351  0  0  -9.32e-4  5.94e-7
WARNING: Redefinition of parameter, Mg+2 Cl-

	b1
	  Mg+2  Cl-  1.65  0  0  -1.09e-2  2.60e-5
WARNING: Redefinition of parameter, Mg+2 Cl-

	c0
	  Mg+2  Cl-  0.00651  0  0  -2.50e-4  2.418e-7
WARNING: Redefinition of parameter, Mg+2 Cl-

	b0
	  K+  Cl-  0.04808  -758.48  -4.7062 0.010072  -3.7599e-6
WARNING: Redefinition of parameter, K+ Cl-

	b1
	  K+  Cl-  0.2168  0  -6.895  2.262e-2  -9.293e-6  -1e5
WARNING: Redefinition of parameter, K+ Cl-

	c0
	  K+  Cl-  -7.88E-04  91.27  0.58643  -1.298e-3  4.9567e-7
WARNING: Redefinition of parameter, K+ Cl-

	psi
	 K+  Mg+2  Cl-  -0.022  -14.27
WARNING: Redefinition of parameter, K+ Mg+2 Cl-

	PHASES
	Carnallite
		KMgCl3:6H2O  =  K+ + Mg++ + 3Cl- + 6H2O
		log_k	 4.35
	 delta_h 1.17
		analytical_expression  24.06  -3.11e-2  -3.09e3
		Vm 173.7
	SOLUTION 1
	 pH 2 charge
	 Mg 7e3
	 K 1e-4 Carnallite
	 Cl 14e3
	END
-------------------------------------------
Beginning of initial solution calculations.
-------------------------------------------

Initial solution 1.	

WARNING: Maximum iterations exceeded, 200

-----------------------------Solution composition------------------------------

	Elements           Molality       Moles

	Cl               1.400e+001  1.400e+001
	K                2.340e-003  2.340e-003  Equilibrium with Carnallite
	Mg               7.000e+000  7.000e+000

----------------------------Description of solution----------------------------

                                       pH  =   4.370      Charge balance
                                       pe  =   4.000    
       Specific Conductance (uS/cm, 25 oC) = 1808708
                          Density (g/cm3)  =   1.36253
                               Volume (L)  =   1.22317
                        Activity of water  =   0.195
                           Ionic strength  =  2.100e+001
                       Mass of water (kg)  =  1.000e+000
                 Total alkalinity (eq/kg)  =  2.340e-003
                    Total carbon (mol/kg)  =  0.000e+000
                       Total CO2 (mol/kg)  =  0.000e+000
                      Temperature (deg C)  =  25.00
                  Electrical balance (eq)  = -4.535e-014
 Percent error, 100*(Cat-|An|)/(Cat+|An|)  =  -0.00
                               Iterations  =  19
                         Gamma iterations  =  19
                      Osmotic coefficient  =   4.32458
                         Density of water  =   0.99706
                                  Total H  = 1.110148e+002
                                  Total O  = 5.550856e+001

----------------------------Distribution of species----------------------------

                                                    MacInnes  MacInnes
                                MacInnes       Log       Log       Log    mole V
   Species          Molality    Activity  Molality  Activity     Gamma   cm3/mol

   OH-            6.189e-008  4.600e-011    -7.208   -10.337    -3.129     19.45
   H+             1.311e-008  4.265e-005    -7.882    -4.370     3.512      0.00
   H2O            5.551e+001  1.947e-001     1.744    -0.711     0.000     18.07
Cl           1.400e+001
   Cl-            1.400e+001  1.559e+001     1.146     1.193     0.047     21.45
K            2.340e-003
   K+             2.340e-003  1.187e-002    -2.631    -1.926     0.705     18.56
Mg           7.000e+000
   Mg+2           6.998e+000  1.000e+003     0.845     7.034     6.190    -11.46
   MgOH+          2.340e-003  7.672e-002    -2.631    -1.115     1.516     (0)  

------------------------------Saturation indices-------------------------------

	Phase               SI   log IAP   log K(298 K,   1 atm)

	Bischofite        0.70      5.16    4.46  MgCl2:6H2O
	Brucite          -2.76    -13.64  -10.88  Mg(OH)2
	Carnallite        0.00      4.42    4.42  KMgCl3:6H2O
	H2O(g)           -2.21     -0.71    1.50  H2O
	Sylvite          -1.63     -0.73    0.90  KCl


------------------
End of simulation.
------------------

------------------------------------
Reading input data for simulation 2.
------------------------------------

	USE solution 1
	EQUILIBRIUM_PHASES 1
	  Carnallite
	REACTION 1
	 KCl 1
	 6 in 30
	REACTION_TEMPERATURE 
	 0
	USER_GRAPH 1
	-headings 0.oC
	-chart_title "Carnallite solubility"
	-axis_titles "MgCl2 / (mol/kgw)" "KCl / (mol/kgw)"
	-axis_scale y_axis 0 1.2
	-axis_scale x_axis 3 8
	-plot_csv_file Carnallite.csv
	10 graph_x tot("Mg")
	20 graph_y tot("K")
	-end
	PRINT
	 status false
	END
-----------------------------------------
Beginning of batch-reaction calculations.
-----------------------------------------

Reaction step 1.

Using solution 1.	
Using pure phase assemblage 1.	
Using temperature 1.	
Using reaction 1.	

Reaction 1.	

	 2.000e-001 moles of the following reaction have been added:

	                 Relative
	Reactant            moles

	KCl                  1.00000

	                 Relative
	Element             moles
	Cl                   1.00000
	K                    1.00000

-------------------------------Phase assemblage--------------------------------

                                                      Moles in assemblage
Phase               SI  log IAP  log K(T, P)   Initial       Final       Delta

Carnallite        0.00     4.25      4.25   1.000e+001  1.020e+001  2.020e-001

-----------------------------Solution composition------------------------------

	Elements           Molality       Moles

	Cl               1.390e+001  1.359e+001
	K                3.980e-004  3.893e-004
	Mg               6.950e+000  6.798e+000

----------------------------Description of solution----------------------------

                                       pH  =   5.099      Charge balance
                                       pe  =   4.000      Adjusted to redox equilibrium
       Specific Conductance (uS/cm, 0 oC) = 900602
                          Density (g/cm3)  =   1.36456
                               Volume (L)  =   1.19116
                        Activity of water  =   0.171
                           Ionic strength  =  2.084e+001
                       Mass of water (kg)  =  9.782e-001
                 Total alkalinity (eq/kg)  =  2.392e-003
                    Total carbon (mol/kg)  =  0.000e+000
                       Total CO2 (mol/kg)  =  0.000e+000
                      Temperature (deg C)  =   0.00
                  Electrical balance (eq)  = -1.342e-010
 Percent error, 100*(Cat-|An|)/(Cat+|An|)  =  -0.00
                               Iterations  =  19
                         Gamma iterations  =   7
                      Osmotic coefficient  =   4.70634
                         Density of water  =   0.99983
                                  Total H  = 1.085914e+002
                                  Total O  = 5.429685e+001

----------------------------Distribution of species----------------------------

                                                    MacInnes  MacInnes
                                MacInnes       Log       Log       Log    mole V
   Species          Molality    Activity  Molality  Activity     Gamma   cm3/mol

   OH-            2.493e-008  2.402e-011    -7.603   -10.619    -3.016     16.09
   H+             2.508e-009  7.961e-006    -8.601    -5.099     3.502      0.00
   H2O            5.551e+001  1.707e-001     1.744    -0.768     0.000     18.02
Cl           1.390e+001
   Cl-            1.390e+001  2.742e+001     1.143     1.438     0.295     22.25
K            3.980e-004
   K+             3.980e-004  1.272e-003    -3.400    -2.896     0.504     21.99
Mg           6.950e+000
   Mg+2           6.947e+000  1.000e+003     0.842     7.440     6.598    -13.19
   MgOH+          2.392e-003  8.475e-002    -2.621    -1.072     1.549     (0)  

------------------------------Saturation indices-------------------------------

	Phase               SI   log IAP   log K(273 K,   1 atm)

	Bischofite        1.17      5.71    4.54  MgCl2:6H2O
	Brucite          -2.59    -13.80  -11.21  Mg(OH)2
	Carnallite        0.00      4.25    4.25  KMgCl3:6H2O
	H2O(g)           -2.98     -0.77    2.21  H2O
	Sylvite          -2.08     -1.46    0.62  KCl


Reaction step 2.

Using solution 1.	
Using pure phase assemblage 1.	
Using temperature 1.	
Using reaction 1.	

Reaction 1.	

	 4.000e-001 moles of the following reaction have been added:

	                 Relative
	Reactant            moles

	KCl                  1.00000

	                 Relative
	Element             moles
	Cl                   1.00000
	K                    1.00000

-------------------------------Phase assemblage--------------------------------

                                                      Moles in assemblage
Phase               SI  log IAP  log K(T, P)   Initial       Final       Delta

Carnallite        0.00     4.25      4.25   1.000e+001  1.040e+001  4.019e-001

-----------------------------Solution composition------------------------------

	Elements           Molality       Moles

	Cl               1.379e+001  1.319e+001
	K                4.335e-004  4.147e-004
	Mg               6.898e+000  6.598e+000

----------------------------Description of solution----------------------------

                                       pH  =   5.146      Charge balance
                                       pe  =   4.000      Adjusted to redox equilibrium
       Specific Conductance (uS/cm, 0 oC) = 893859
                          Density (g/cm3)  =   1.36314
                               Volume (L)  =   1.16257
                        Activity of water  =   0.175
                           Ionic strength  =  2.069e+001
                       Mass of water (kg)  =  9.566e-001
                 Total alkalinity (eq/kg)  =  2.446e-003
                    Total carbon (mol/kg)  =  0.000e+000
                       Total CO2 (mol/kg)  =  0.000e+000
                      Temperature (deg C)  =   0.00
                  Electrical balance (eq)  = -1.065e-010
 Percent error, 100*(Cat-|An|)/(Cat+|An|)  =  -0.00
                               Iterations  =  19
                         Gamma iterations  =   7
                      Osmotic coefficient  =   4.66865
                         Density of water  =   0.99983
                                  Total H  = 1.061917e+002
                                  Total O  = 5.309700e+001

----------------------------Distribution of species----------------------------

                                                    MacInnes  MacInnes
                                MacInnes       Log       Log       Log    mole V
   Species          Molality    Activity  Molality  Activity     Gamma   cm3/mol

   OH-            2.748e-008  2.753e-011    -7.561   -10.560    -2.999     15.93
   H+             2.395e-009  7.138e-006    -8.621    -5.146     3.474      0.00
   H2O            5.551e+001  1.755e-001     1.744    -0.756     0.000     18.02
Cl           1.379e+001
   Cl-            1.379e+001  2.670e+001     1.140     1.426     0.287     22.22
K            4.335e-004
   K+             4.335e-004  1.380e-003    -3.363    -2.860     0.503     21.89
Mg           6.898e+000
   Mg+2           6.895e+000  1.000e+003     0.839     7.368     6.530    -13.23
   MgOH+          2.446e-003  8.231e-002    -2.611    -1.085     1.527     (0)  

------------------------------Saturation indices-------------------------------

	Phase               SI   log IAP   log K(273 K,   1 atm)

	Bischofite        1.15      5.69    4.54  MgCl2:6H2O
	Brucite          -2.55    -13.75  -11.21  Mg(OH)2
	Carnallite        0.00      4.25    4.25  KMgCl3:6H2O
	H2O(g)           -2.97     -0.76    2.21  H2O
	Sylvite          -2.05     -1.43    0.62  KCl


Reaction step 3.

Using solution 1.	
Using pure phase assemblage 1.	
Using temperature 1.	
Using reaction 1.	

Reaction 1.	

	 6.000e-001 moles of the following reaction have been added:

	                 Relative
	Reactant            moles

	KCl                  1.00000

	                 Relative
	Element             moles
	Cl                   1.00000
	K                    1.00000

-------------------------------Phase assemblage--------------------------------

                                                      Moles in assemblage
Phase               SI  log IAP  log K(T, P)   Initial       Final       Delta

Carnallite        0.00     4.25      4.25   1.000e+001  1.060e+001  6.019e-001

-----------------------------Solution composition------------------------------

	Elements           Molality       Moles

	Cl               1.368e+001  1.279e+001
	K                4.746e-004  4.438e-004
	Mg               6.843e+000  6.398e+000

----------------------------Description of solution----------------------------

                                       pH  =   5.196      Charge balance
                                       pe  =   4.000      Adjusted to redox equilibrium
       Specific Conductance (uS/cm, 0 oC) = 886805
                          Density (g/cm3)  =   1.36163
                               Volume (L)  =   1.13401
                        Activity of water  =   0.180
                           Ionic strength  =  2.053e+001
                       Mass of water (kg)  =  9.349e-001
                 Total alkalinity (eq/kg)  =  2.503e-003
                    Total carbon (mol/kg)  =  0.000e+000
                       Total CO2 (mol/kg)  =  0.000e+000
                      Temperature (deg C)  =   0.00
                  Electrical balance (eq)  = -8.268e-011
 Percent error, 100*(Cat-|An|)/(Cat+|An|)  =  -0.00
                               Iterations  =  19
                         Gamma iterations  =   7
                      Osmotic coefficient  =   4.62932
                         Density of water  =   0.99983
                                  Total H  = 1.037920e+002
                                  Total O  = 5.189718e+001

----------------------------Distribution of species----------------------------

                                                    MacInnes  MacInnes
                                MacInnes       Log       Log       Log    mole V
   Species          Molality    Activity  Molality  Activity     Gamma   cm3/mol

   OH-            3.042e-008  3.174e-011    -7.517   -10.498    -2.982     15.78
   H+             2.283e-009  6.369e-006    -8.641    -5.196     3.446      0.00
   H2O            5.551e+001  1.805e-001     1.744    -0.744     0.000     18.02
Cl           1.368e+001
   Cl-            1.368e+001  2.597e+001     1.136     1.414     0.278     22.19
K            4.746e-004
   K+             4.746e-004  1.505e-003    -3.324    -2.823     0.501     21.78
Mg           6.843e+000
   Mg+2           6.841e+000  1.000e+003     0.835     7.293     6.458    -13.28
   MgOH+          2.503e-003  7.982e-002    -2.602    -1.098     1.504     (0)  

------------------------------Saturation indices-------------------------------

	Phase               SI   log IAP   log K(273 K,   1 atm)

	Bischofite        1.12      5.66    4.54  MgCl2:6H2O
	Brucite          -2.50    -13.70  -11.21  Mg(OH)2
	Carnallite        0.00      4.25    4.25  KMgCl3:6H2O
	H2O(g)           -2.95     -0.74    2.21  H2O
	Sylvite          -2.03     -1.41    0.62  KCl


Reaction step 4.

Using solution 1.	
Using pure phase assemblage 1.	
Using temperature 1.	
Using reaction 1.	

Reaction 1.	

	 8.000e-001 moles of the following reaction have been added:

	                 Relative
	Reactant            moles

	KCl                  1.00000

	                 Relative
	Element             moles
	Cl                   1.00000
	K                    1.00000

-------------------------------Phase assemblage--------------------------------

                                                      Moles in assemblage
Phase               SI  log IAP  log K(T, P)   Initial       Final       Delta

Carnallite        0.00     4.25      4.25   1.000e+001  1.080e+001  8.019e-001

-----------------------------Solution composition------------------------------

	Elements           Molality       Moles

	Cl               1.357e+001  1.239e+001
	K                5.227e-004  4.774e-004
	Mg               6.786e+000  6.198e+000

----------------------------Description of solution----------------------------

                                       pH  =   5.248      Charge balance
                                       pe  =   4.000      Adjusted to redox equilibrium
       Specific Conductance (uS/cm, 0 oC) = 879418
                          Density (g/cm3)  =   1.36002
                               Volume (L)  =   1.10546
                        Activity of water  =   0.186
                           Ionic strength  =  2.035e+001
                       Mass of water (kg)  =  9.133e-001
                 Total alkalinity (eq/kg)  =  2.562e-003
                    Total carbon (mol/kg)  =  0.000e+000
                       Total CO2 (mol/kg)  =  0.000e+000
                      Temperature (deg C)  =   0.00
                  Electrical balance (eq)  = -6.239e-011
 Percent error, 100*(Cat-|An|)/(Cat+|An|)  =  -0.00
                               Iterations  =  19
                         Gamma iterations  =   7
                      Osmotic coefficient  =   4.58824
                         Density of water  =   0.99983
                                  Total H  = 1.013924e+002
                                  Total O  = 5.069738e+001

----------------------------Distribution of species----------------------------

                                                    MacInnes  MacInnes
                                MacInnes       Log       Log       Log    mole V
   Species          Molality    Activity  Molality  Activity     Gamma   cm3/mol

   OH-            3.382e-008  3.682e-011    -7.471   -10.434    -2.963     15.61
   H+             2.171e-009  5.654e-006    -8.663    -5.248     3.416      0.00
   H2O            5.551e+001  1.859e-001     1.744    -0.731     0.000     18.02
Cl           1.357e+001
   Cl-            1.357e+001  2.522e+001     1.133     1.402     0.269     22.15
K            5.227e-004
   K+             5.227e-004  1.650e-003    -3.282    -2.783     0.499     21.67
Mg           6.786e+000
   Mg+2           6.784e+000  1.000e+003     0.831     7.215     6.383    -13.33
   MgOH+          2.562e-003  7.728e-002    -2.591    -1.112     1.479     (0)  

------------------------------Saturation indices-------------------------------

	Phase               SI   log IAP   log K(273 K,   1 atm)

	Bischofite        1.09      5.63    4.54  MgCl2:6H2O
	Brucite          -2.45    -13.65  -11.21  Mg(OH)2
	Carnallite        0.00      4.25    4.25  KMgCl3:6H2O
	H2O(g)           -2.94     -0.73    2.21  H2O
	Sylvite          -2.00     -1.38    0.62  KCl


Reaction step 5.

Using solution 1.	
Using pure phase assemblage 1.	
Using temperature 1.	
Using reaction 1.	

Reaction 1.	

	 1.000e+000 moles of the following reaction have been added:

	                 Relative
	Reactant            moles

	KCl                  1.00000

	                 Relative
	Element             moles
	Cl                   1.00000
	K                    1.00000

-------------------------------Phase assemblage--------------------------------

                                                      Moles in assemblage
Phase               SI  log IAP  log K(T, P)   Initial       Final       Delta

Carnallite       -0.00     4.25      4.25   1.000e+001  1.100e+001  1.002e+000

-----------------------------Solution composition------------------------------

	Elements           Molality       Moles

	Cl               1.345e+001  1.199e+001
	K                5.793e-004  5.165e-004
	Mg               6.727e+000  5.998e+000

----------------------------Description of solution----------------------------

                                       pH  =   5.302      Charge balance
                                       pe  =   4.000      Adjusted to redox equilibrium
       Specific Conductance (uS/cm, 0 oC) = 871672
                          Density (g/cm3)  =   1.35841
                               Volume (L)  =   1.07684
                        Activity of water  =   0.192
                           Ionic strength  =  2.018e+001
                       Mass of water (kg)  =  8.917e-001
                 Total alkalinity (eq/kg)  =  2.624e-003
                    Total carbon (mol/kg)  =  0.000e+000
                       Total CO2 (mol/kg)  =  0.000e+000
                      Temperature (deg C)  =   0.00
                  Electrical balance (eq)  = -4.539e-011
 Percent error, 100*(Cat-|An|)/(Cat+|An|)  =  -0.00
                               Iterations  =  19
                         Gamma iterations  =   7
                      Osmotic coefficient  =   4.54530
                         Density of water  =   0.99983
                                  Total H  = 9.899289e+001
                                  Total O  = 4.949762e+001

----------------------------Distribution of species----------------------------

                                                    MacInnes  MacInnes
                                MacInnes       Log       Log       Log    mole V
   Species          Molality    Activity  Molality  Activity     Gamma   cm3/mol

   OH-            3.776e-008  4.301e-011    -7.423   -10.366    -2.944     15.42
   H+             2.061e-009  4.990e-006    -8.686    -5.302     3.384      0.00
   H2O            5.551e+001  1.916e-001     1.744    -0.718     0.000     18.02
Cl           1.345e+001
   Cl-            1.345e+001  2.447e+001     1.129     1.389     0.260     22.12
K            5.793e-004
   K+             5.793e-004  1.819e-003    -3.237    -2.740     0.497     21.55
Mg           6.727e+000
   Mg+2           6.724e+000  1.000e+003     0.828     7.132     6.305    -13.39
   MgOH+          2.624e-003  7.470e-002    -2.581    -1.127     1.454     (0)  

------------------------------Saturation indices-------------------------------

	Phase               SI   log IAP   log K(273 K,   1 atm)

	Bischofite        1.06      5.60    4.54  MgCl2:6H2O
	Brucite          -2.40    -13.60  -11.21  Mg(OH)2
	Carnallite       -0.00      4.25    4.25  KMgCl3:6H2O
	H2O(g)           -2.93     -0.72    2.21  H2O
	Sylvite          -1.97     -1.35    0.62  KCl


Reaction step 6.

Using solution 1.	
Using pure phase assemblage 1.	
Using temperature 1.	
Using reaction 1.	

Reaction 1.	

	 1.200e+000 moles of the following reaction have been added:

	                 Relative
	Reactant            moles

	KCl                  1.00000

	                 Relative
	Element             moles
	Cl                   1.00000
	K                    1.00000

-------------------------------Phase assemblage--------------------------------

                                                      Moles in assemblage
Phase               SI  log IAP  log K(T, P)   Initial       Final       Delta

Carnallite        0.00     4.25      4.25   1.000e+001  1.120e+001  1.202e+000

-----------------------------Solution composition------------------------------

	Elements           Molality       Moles

	Cl               1.333e+001  1.159e+001
	K                6.464e-004  5.624e-004
	Mg               6.664e+000  5.798e+000

----------------------------Description of solution----------------------------

                                       pH  =   5.359      Charge balance
                                       pe  =   4.000      Adjusted to redox equilibrium
       Specific Conductance (uS/cm, 0 oC) = 863543
                          Density (g/cm3)  =   1.35663
                               Volume (L)  =   1.04830
                        Activity of water  =   0.198
                           Ionic strength  =  1.999e+001
                       Mass of water (kg)  =  8.701e-001
                 Total alkalinity (eq/kg)  =  2.689e-003
                    Total carbon (mol/kg)  =  0.000e+000
                       Total CO2 (mol/kg)  =  0.000e+000
                      Temperature (deg C)  =   0.00
                  Electrical balance (eq)  = -3.143e-011
 Percent error, 100*(Cat-|An|)/(Cat+|An|)  =  -0.00
                               Iterations  =  20
                         Gamma iterations  =   7
                      Osmotic coefficient  =   4.50037
                         Density of water  =   0.99983
                                  Total H  = 9.659344e+001
                                  Total O  = 4.829789e+001

----------------------------Distribution of species----------------------------

                                                    MacInnes  MacInnes
                                MacInnes       Log       Log       Log    mole V
   Species          Molality    Activity  Molality  Activity     Gamma   cm3/mol

   OH-            4.239e-008  5.060e-011    -7.373   -10.296    -2.923     15.24
   H+             1.951e-009  4.377e-006    -8.710    -5.359     3.351      0.00
   H2O            5.551e+001  1.978e-001     1.744    -0.704     0.000     18.02
Cl           1.333e+001
   Cl-            1.333e+001  2.370e+001     1.125     1.375     0.250     22.08
K            6.464e-004
   K+             6.464e-004  2.019e-003    -3.189    -2.695     0.495     21.42
Mg           6.664e+000
   Mg+2           6.661e+000  1.000e+003     0.824     7.046     6.223    -13.45
   MgOH+          2.689e-003  7.208e-002    -2.570    -1.142     1.428     (0)  

------------------------------Saturation indices-------------------------------

	Phase               SI   log IAP   log K(273 K,   1 atm)

	Bischofite        1.03      5.57    4.54  MgCl2:6H2O
	Brucite          -2.34    -13.55  -11.21  Mg(OH)2
	Carnallite        0.00      4.25    4.25  KMgCl3:6H2O
	H2O(g)           -2.91     -0.70    2.21  H2O
	Sylvite          -1.94     -1.32    0.62  KCl


Reaction step 7.

Using solution 1.	
Using pure phase assemblage 1.	
Using temperature 1.	
Using reaction 1.	

Reaction 1.	

	 1.400e+000 moles of the following reaction have been added:

	                 Relative
	Reactant            moles

	KCl                  1.00000

	                 Relative
	Element             moles
	Cl                   1.00000
	K                    1.00000

-------------------------------Phase assemblage--------------------------------

                                                      Moles in assemblage
Phase               SI  log IAP  log K(T, P)   Initial       Final       Delta

Carnallite        0.00     4.25      4.25   1.000e+001  1.140e+001  1.402e+000

-----------------------------Solution composition------------------------------

	Elements           Molality       Moles

	Cl               1.319e+001  1.119e+001
	K                7.268e-004  6.167e-004
	Mg               6.598e+000  5.598e+000

----------------------------Description of solution----------------------------

                                       pH  =   5.419      Charge balance
                                       pe  =   4.000      Adjusted to redox equilibrium
       Specific Conductance (uS/cm, 0 oC) = 855001
                          Density (g/cm3)  =   1.35472
                               Volume (L)  =   1.01977
                        Activity of water  =   0.204
                           Ionic strength  =  1.979e+001
                       Mass of water (kg)  =  8.485e-001
                 Total alkalinity (eq/kg)  =  2.758e-003
                    Total carbon (mol/kg)  =  0.000e+000
                       Total CO2 (mol/kg)  =  0.000e+000
                      Temperature (deg C)  =   0.00
                  Electrical balance (eq)  = -2.023e-011
 Percent error, 100*(Cat-|An|)/(Cat+|An|)  =  -0.00
                               Iterations  =  20
                         Gamma iterations  =   7
                      Osmotic coefficient  =   4.45331
                         Density of water  =   0.99983
                                  Total H  = 9.419409e+001
                                  Total O  = 4.709822e+001

----------------------------Distribution of species----------------------------

                                                    MacInnes  MacInnes
                                MacInnes       Log       Log       Log    mole V
   Species          Molality    Activity  Molality  Activity     Gamma   cm3/mol

   OH-            4.783e-008  6.000e-011    -7.320   -10.222    -2.902     15.04
   H+             1.842e-009  3.814e-006    -8.735    -5.419     3.316      0.00
   H2O            5.551e+001  2.043e-001     1.744    -0.690     0.000     18.02
Cl           1.319e+001
   Cl-            1.319e+001  2.293e+001     1.120     1.360     0.240     22.04
K            7.268e-004
   K+             7.268e-004  2.257e-003    -3.139    -2.647     0.492     21.29
Mg           6.598e+000
   Mg+2           6.595e+000  1.000e+003     0.819     6.956     6.137    -13.51
   MgOH+          2.758e-003  6.943e-002    -2.559    -1.158     1.401     (0)  

------------------------------Saturation indices-------------------------------

	Phase               SI   log IAP   log K(273 K,   1 atm)

	Bischofite        1.00      5.54    4.54  MgCl2:6H2O
	Brucite          -2.28    -13.49  -11.21  Mg(OH)2
	Carnallite        0.00      4.25    4.25  KMgCl3:6H2O
	H2O(g)           -2.90     -0.69    2.21  H2O
	Sylvite          -1.90     -1.29    0.62  KCl


Reaction step 8.

Using solution 1.	
Using pure phase assemblage 1.	
Using temperature 1.	
Using reaction 1.	

Reaction 1.	

	 1.600e+000 moles of the following reaction have been added:

	                 Relative
	Reactant            moles

	KCl                  1.00000

	                 Relative
	Element             moles
	Cl                   1.00000
	K                    1.00000

-------------------------------Phase assemblage--------------------------------

                                                      Moles in assemblage
Phase               SI  log IAP  log K(T, P)   Initial       Final       Delta

Carnallite        0.00     4.25      4.25   1.000e+001  1.160e+001  1.602e+000

-----------------------------Solution composition------------------------------

	Elements           Molality       Moles

	Cl               1.306e+001  1.080e+001
	K                8.240e-004  6.813e-004
	Mg               6.529e+000  5.398e+000

----------------------------Description of solution----------------------------

                                       pH  =   5.481      Charge balance
                                       pe  =   4.000      Adjusted to redox equilibrium
       Specific Conductance (uS/cm, 0 oC) = 846014
                          Density (g/cm3)  =   1.35269
                               Volume (L)  =   0.99125
                        Activity of water  =   0.211
                           Ionic strength  =  1.958e+001
                       Mass of water (kg)  =  8.269e-001
                 Total alkalinity (eq/kg)  =  2.830e-003
                    Total carbon (mol/kg)  =  0.000e+000
                       Total CO2 (mol/kg)  =  0.000e+000
                      Temperature (deg C)  =   0.00
                  Electrical balance (eq)  = -1.145e-011
 Percent error, 100*(Cat-|An|)/(Cat+|An|)  =  -0.00
                               Iterations  =  20
                         Gamma iterations  =   7
                      Osmotic coefficient  =   4.40396
                         Density of water  =   0.99983
                                  Total H  = 9.179487e+001
                                  Total O  = 4.589860e+001

----------------------------Distribution of species----------------------------

                                                    MacInnes  MacInnes
                                MacInnes       Log       Log       Log    mole V
   Species          Molality    Activity  Molality  Activity     Gamma   cm3/mol

   OH-            5.429e-008  7.176e-011    -7.265   -10.144    -2.879     14.84
   H+             1.734e-009  3.300e-006    -8.761    -5.481     3.279      0.00
   H2O            5.551e+001  2.114e-001     1.744    -0.675     0.000     18.02
Cl           1.306e+001
   Cl-            1.306e+001  2.214e+001     1.116     1.345     0.229     22.00
K            8.240e-004
   K+             8.240e-004  2.541e-003    -3.084    -2.595     0.489     21.15
Mg           6.529e+000
   Mg+2           6.526e+000  1.000e+003     0.815     6.861     6.046    -13.57
   MgOH+          2.830e-003  6.674e-002    -2.548    -1.176     1.373     (0)  

------------------------------Saturation indices-------------------------------

	Phase               SI   log IAP   log K(273 K,   1 atm)

	Bischofite        0.96      5.50    4.54  MgCl2:6H2O
	Brucite          -2.22    -13.43  -11.21  Mg(OH)2
	Carnallite        0.00      4.25    4.25  KMgCl3:6H2O
	H2O(g)           -2.88     -0.67    2.21  H2O
	Sylvite          -1.87     -1.25    0.62  KCl


Reaction step 9.

Using solution 1.	
Using pure phase assemblage 1.	
Using temperature 1.	
Using reaction 1.	

Reaction 1.	

	 1.800e+000 moles of the following reaction have been added:

	                 Relative
	Reactant            moles

	KCl                  1.00000

	                 Relative
	Element             moles
	Cl                   1.00000
	K                    1.00000

-------------------------------Phase assemblage--------------------------------

                                                      Moles in assemblage
Phase               SI  log IAP  log K(T, P)   Initial       Final       Delta

Carnallite       -0.00     4.25      4.25   1.000e+001  1.180e+001  1.802e+000

-----------------------------Solution composition------------------------------

	Elements           Molality       Moles

	Cl               1.291e+001  1.040e+001
	K                9.428e-004  7.592e-004
	Mg               6.456e+000  5.198e+000

----------------------------Description of solution----------------------------

                                       pH  =   5.548      Charge balance
                                       pe  =   4.000      Adjusted to redox equilibrium
       Specific Conductance (uS/cm, 0 oC) = 836546
                          Density (g/cm3)  =   1.35051
                               Volume (L)  =   0.96276
                        Activity of water  =   0.219
                           Ionic strength  =  1.936e+001
                       Mass of water (kg)  =  8.053e-001
                 Total alkalinity (eq/kg)  =  2.906e-003
                    Total carbon (mol/kg)  =  0.000e+000
                       Total CO2 (mol/kg)  =  0.000e+000
                      Temperature (deg C)  =   0.00
                  Electrical balance (eq)  = -5.550e-012
 Percent error, 100*(Cat-|An|)/(Cat+|An|)  =  -0.00
                               Iterations  =  19
                         Gamma iterations  =   6
                      Osmotic coefficient  =   4.35215
                         Density of water  =   0.99983
                                  Total H  = 8.939580e+001
                                  Total O  = 4.469907e+001

----------------------------Distribution of species----------------------------

                                                    MacInnes  MacInnes
                                MacInnes       Log       Log       Log    mole V
   Species          Molality    Activity  Molality  Activity     Gamma   cm3/mol

   OH-            6.201e-008  8.660e-011    -7.208   -10.062    -2.855     14.62
   H+             1.628e-009  2.833e-006    -8.788    -5.548     3.241      0.00
   H2O            5.551e+001  2.191e-001     1.744    -0.659     0.000     18.02
Cl           1.291e+001
   Cl-            1.291e+001  2.134e+001     1.111     1.329     0.218     21.95
K            9.428e-004
   K+             9.428e-004  2.886e-003    -3.026    -2.540     0.486     21.01
Mg           6.456e+000
   Mg+2           6.453e+000  1.000e+003     0.810     6.761     5.952    -13.64
   MgOH+          2.906e-003  6.402e-002    -2.537    -1.194     1.343     (0)  

------------------------------Saturation indices-------------------------------

	Phase               SI   log IAP   log K(273 K,   1 atm)

	Bischofite        0.92      5.46    4.54  MgCl2:6H2O
	Brucite          -2.16    -13.36  -11.21  Mg(OH)2
	Carnallite       -0.00      4.25    4.25  KMgCl3:6H2O
	H2O(g)           -2.87     -0.66    2.21  H2O
	Sylvite          -1.83     -1.21    0.62  KCl


Reaction step 10.

Using solution 1.	
Using pure phase assemblage 1.	
Using temperature 1.	
Using reaction 1.	

Reaction 1.	

	 2.000e+000 moles of the following reaction have been added:

	                 Relative
	Reactant            moles

	KCl                  1.00000

	                 Relative
	Element             moles
	Cl                   1.00000
	K                    1.00000

-------------------------------Phase assemblage--------------------------------

                                                      Moles in assemblage
Phase               SI  log IAP  log K(T, P)   Initial       Final       Delta

Carnallite       -0.00     4.25      4.25   1.000e+001  1.200e+001  2.001e+000

-----------------------------Solution composition------------------------------

	Elements           Molality       Moles

	Cl               1.276e+001  9.996e+000
	K                1.090e-003  8.539e-004
	Mg               6.379e+000  4.999e+000

----------------------------Description of solution----------------------------

                                       pH  =   5.618      Charge balance
                                       pe  =   4.000      Adjusted to redox equilibrium
       Specific Conductance (uS/cm, 0 oC) = 826559
                          Density (g/cm3)  =   1.34817
                               Volume (L)  =   0.93429
                        Activity of water  =   0.227
                           Ionic strength  =  1.913e+001
                       Mass of water (kg)  =  7.836e-001
                 Total alkalinity (eq/kg)  =  2.986e-003
                    Total carbon (mol/kg)  =  0.000e+000
                       Total CO2 (mol/kg)  =  0.000e+000
                      Temperature (deg C)  =   0.00
                  Electrical balance (eq)  = -5.298e-012
 Percent error, 100*(Cat-|An|)/(Cat+|An|)  =  -0.00
                               Iterations  =  19
                         Gamma iterations  =   6
                      Osmotic coefficient  =   4.29771
                         Density of water  =   0.99983
                                  Total H  = 8.699694e+001
                                  Total O  = 4.349964e+001

----------------------------Distribution of species----------------------------

                                                    MacInnes  MacInnes
                                MacInnes       Log       Log       Log    mole V
   Species          Molality    Activity  Molality  Activity     Gamma   cm3/mol

   OH-            7.130e-008  1.056e-010    -7.147    -9.977    -2.830     14.39
   H+             1.522e-009  2.412e-006    -8.817    -5.618     3.200      0.00
   H2O            5.551e+001  2.273e-001     1.744    -0.643     0.000     18.02
Cl           1.276e+001
   Cl-            1.276e+001  2.053e+001     1.106     1.312     0.207     21.91
K            1.090e-003
   K+             1.090e-003  3.309e-003    -2.963    -2.480     0.482     20.86
Mg           6.379e+000
   Mg+2           6.376e+000  1.000e+003     0.805     6.656     5.852    -13.70
   MgOH+          2.986e-003  6.127e-002    -2.525    -1.213     1.312     (0)  

------------------------------Saturation indices-------------------------------

	Phase               SI   log IAP   log K(273 K,   1 atm)

	Bischofite        0.88      5.42    4.54  MgCl2:6H2O
	Brucite          -2.09    -13.30  -11.21  Mg(OH)2
	Carnallite       -0.00      4.25    4.25  KMgCl3:6H2O
	H2O(g)           -2.85     -0.64    2.21  H2O
	Sylvite          -1.79     -1.17    0.62  KCl


Reaction step 11.

Using solution 1.	
Using pure phase assemblage 1.	
Using temperature 1.	
Using reaction 1.	

Reaction 1.	

	 2.200e+000 moles of the following reaction have been added:

	                 Relative
	Reactant            moles

	KCl                  1.00000

	                 Relative
	Element             moles
	Cl                   1.00000
	K                    1.00000

-------------------------------Phase assemblage--------------------------------

                                                      Moles in assemblage
Phase               SI  log IAP  log K(T, P)   Initial       Final       Delta

Carnallite       -0.00     4.25      4.25   1.000e+001  1.220e+001  2.201e+000

-----------------------------Solution composition------------------------------

	Elements           Molality       Moles

	Cl               1.259e+001  9.596e+000
	K                1.273e-003  9.704e-004
	Mg               6.297e+000  4.799e+000

----------------------------Description of solution----------------------------

                                       pH  =   5.692      Charge balance
                                       pe  =   4.000      Adjusted to redox equilibrium
       Specific Conductance (uS/cm, 0 oC) = 816008
                          Density (g/cm3)  =   1.34566
                               Volume (L)  =   0.90584
                        Activity of water  =   0.236
                           Ionic strength  =  1.889e+001
                       Mass of water (kg)  =  7.620e-001
                 Total alkalinity (eq/kg)  =  3.071e-003
                    Total carbon (mol/kg)  =  0.000e+000
                       Total CO2 (mol/kg)  =  0.000e+000
                      Temperature (deg C)  =   0.00
                  Electrical balance (eq)  = -4.995e-012
 Percent error, 100*(Cat-|An|)/(Cat+|An|)  =  -0.00
                               Iterations  =  19
                         Gamma iterations  =   6
                      Osmotic coefficient  =   4.24041
                         Density of water  =   0.99983
                                  Total H  = 8.459834e+001
                                  Total O  = 4.230034e+001

----------------------------Distribution of species----------------------------

                                                    MacInnes  MacInnes
                                MacInnes       Log       Log       Log    mole V
   Species          Molality    Activity  Molality  Activity     Gamma   cm3/mol

   OH-            8.258e-008  1.300e-010    -7.083    -9.886    -2.803     14.15
   H+             1.419e-009  2.034e-006    -8.848    -5.692     3.157      0.00
   H2O            5.551e+001  2.362e-001     1.744    -0.627     0.000     18.02
Cl           1.259e+001
   Cl-            1.259e+001  1.971e+001     1.100     1.295     0.194     21.86
K            1.273e-003
   K+             1.273e-003  3.832e-003    -2.895    -2.417     0.478     20.69
Mg           6.297e+000
   Mg+2           6.294e+000  1.000e+003     0.799     6.546     5.747    -13.78
   MgOH+          3.071e-003  5.851e-002    -2.513    -1.233     1.280     (0)  

------------------------------Saturation indices-------------------------------

	Phase               SI   log IAP   log K(273 K,   1 atm)

	Bischofite        0.83      5.37    4.54  MgCl2:6H2O
	Brucite          -2.02    -13.23  -11.21  Mg(OH)2
	Carnallite       -0.00      4.25    4.25  KMgCl3:6H2O
	H2O(g)           -2.84     -0.63    2.21  H2O
	Sylvite          -1.74     -1.12    0.62  KCl


Reaction step 12.

Using solution 1.	
Using pure phase assemblage 1.	
Using temperature 1.	
Using reaction 1.	

Reaction 1.	

	 2.400e+000 moles of the following reaction have been added:

	                 Relative
	Reactant            moles

	KCl                  1.00000

	                 Relative
	Element             moles
	Cl                   1.00000
	K                    1.00000

-------------------------------Phase assemblage--------------------------------

                                                      Moles in assemblage
Phase               SI  log IAP  log K(T, P)   Initial       Final       Delta

Carnallite        0.00     4.25      4.25   1.000e+001  1.240e+001  2.401e+000

-----------------------------Solution composition------------------------------

	Elements           Molality       Moles

	Cl               1.242e+001  9.196e+000
	K                1.507e-003  1.116e-003
	Mg               6.211e+000  4.599e+000

----------------------------Description of solution----------------------------

                                       pH  =   5.770      Charge balance
                                       pe  =   4.000      Adjusted to redox equilibrium
       Specific Conductance (uS/cm, 0 oC) = 804847
                          Density (g/cm3)  =   1.34295
                               Volume (L)  =   0.87742
                        Activity of water  =   0.246
                           Ionic strength  =  1.863e+001
                       Mass of water (kg)  =  7.404e-001
                 Total alkalinity (eq/kg)  =  3.160e-003
                    Total carbon (mol/kg)  =  0.000e+000
                       Total CO2 (mol/kg)  =  0.000e+000
                      Temperature (deg C)  =   0.00
                  Electrical balance (eq)  = -4.630e-012
 Percent error, 100*(Cat-|An|)/(Cat+|An|)  =  -0.00
                               Iterations  =  19
                         Gamma iterations  =   6
                      Osmotic coefficient  =   4.18005
                         Density of water  =   0.99983
                                  Total H  = 8.220008e+001
                                  Total O  = 4.110121e+001

----------------------------Distribution of species----------------------------

                                                    MacInnes  MacInnes
                                MacInnes       Log       Log       Log    mole V
   Species          Molality    Activity  Molality  Activity     Gamma   cm3/mol

   OH-            9.641e-008  1.621e-010    -7.016    -9.790    -2.774     13.89
   H+             1.317e-009  1.699e-006    -8.881    -5.770     3.111      0.00
   H2O            5.551e+001  2.458e-001     1.744    -0.609     0.000     18.02
Cl           1.242e+001
   Cl-            1.242e+001  1.888e+001     1.094     1.276     0.182     21.81
K            1.507e-003
   K+             1.507e-003  4.489e-003    -2.822    -2.348     0.474     20.52
Mg           6.211e+000
   Mg+2           6.208e+000  1.000e+003     0.793     6.429     5.636    -13.86
   MgOH+          3.160e-003  5.572e-002    -2.500    -1.254     1.246     (0)  

------------------------------Saturation indices-------------------------------

	Phase               SI   log IAP   log K(273 K,   1 atm)

	Bischofite        0.78      5.32    4.54  MgCl2:6H2O
	Brucite          -1.95    -13.15  -11.21  Mg(OH)2
	Carnallite        0.00      4.25    4.25  KMgCl3:6H2O
	H2O(g)           -2.82     -0.61    2.21  H2O
	Sylvite          -1.69     -1.07    0.62  KCl


Reaction step 13.

Using solution 1.	
Using pure phase assemblage 1.	
Using temperature 1.	
Using reaction 1.	

Reaction 1.	

	 2.600e+000 moles of the following reaction have been added:

	                 Relative
	Reactant            moles

	KCl                  1.00000

	                 Relative
	Element             moles
	Cl                   1.00000
	K                    1.00000

-------------------------------Phase assemblage--------------------------------

                                                      Moles in assemblage
Phase               SI  log IAP  log K(T, P)   Initial       Final       Delta

Carnallite        0.00     4.25      4.25   1.000e+001  1.260e+001  2.601e+000

-----------------------------Solution composition------------------------------

	Elements           Molality       Moles

	Cl               1.224e+001  8.797e+000
	K                1.808e-003  1.299e-003
	Mg               6.120e+000  4.399e+000

----------------------------Description of solution----------------------------

                                       pH  =   5.853      Charge balance
                                       pe  =   4.000      Adjusted to redox equilibrium
       Specific Conductance (uS/cm, 0 oC) = 793021
                          Density (g/cm3)  =   1.34003
                               Volume (L)  =   0.84903
                        Activity of water  =   0.256
                           Ionic strength  =  1.835e+001
                       Mass of water (kg)  =  7.188e-001
                 Total alkalinity (eq/kg)  =  3.255e-003
                    Total carbon (mol/kg)  =  0.000e+000
                       Total CO2 (mol/kg)  =  0.000e+000
                      Temperature (deg C)  =   0.00
                  Electrical balance (eq)  = -1.109e-011
 Percent error, 100*(Cat-|An|)/(Cat+|An|)  =  -0.00
                               Iterations  =  20
                         Gamma iterations  =   7
                      Osmotic coefficient  =   4.11636
                         Density of water  =   0.99983
                                  Total H  = 7.980228e+001
                                  Total O  = 3.990231e+001

----------------------------Distribution of species----------------------------

                                                    MacInnes  MacInnes
                                MacInnes       Log       Log       Log    mole V
   Species          Molality    Activity  Molality  Activity     Gamma   cm3/mol

   OH-            1.135e-007  2.046e-010    -6.945    -9.689    -2.744     13.62
   H+             1.216e-009  1.403e-006    -8.915    -5.853     3.062      0.00
   H2O            5.551e+001  2.563e-001     1.744    -0.591     0.000     18.02
Cl           1.224e+001
   Cl-            1.224e+001  1.804e+001     1.088     1.256     0.168     21.75
K            1.808e-003
   K+             1.808e-003  5.325e-003    -2.743    -2.274     0.469     20.34
Mg           6.120e+000
   Mg+2           6.116e+000  1.000e+003     0.786     6.305     5.519    -13.94
   MgOH+          3.255e-003  5.293e-002    -2.487    -1.276     1.211     (0)  

------------------------------Saturation indices-------------------------------

	Phase               SI   log IAP   log K(273 K,   1 atm)

	Bischofite        0.73      5.27    4.54  MgCl2:6H2O
	Brucite          -1.87    -13.07  -11.21  Mg(OH)2
	Carnallite        0.00      4.25    4.25  KMgCl3:6H2O
	H2O(g)           -2.80     -0.59    2.21  H2O
	Sylvite          -1.64     -1.02    0.62  KCl


Reaction step 14.

Using solution 1.	
Using pure phase assemblage 1.	
Using temperature 1.	
Using reaction 1.	

Reaction 1.	

	 2.800e+000 moles of the following reaction have been added:

	                 Relative
	Reactant            moles

	KCl                  1.00000

	                 Relative
	Element             moles
	Cl                   1.00000
	K                    1.00000

-------------------------------Phase assemblage--------------------------------

                                                      Moles in assemblage
Phase               SI  log IAP  log K(T, P)   Initial       Final       Delta

Carnallite       -0.00     4.25      4.25   1.000e+001  1.280e+001  2.801e+000

-----------------------------Solution composition------------------------------

	Elements           Molality       Moles

	Cl               1.204e+001  8.398e+000
	K                2.202e-003  1.535e-003
	Mg               6.023e+000  4.199e+000

----------------------------Description of solution----------------------------

                                       pH  =   5.941      Charge balance
                                       pe  =   4.000      Adjusted to redox equilibrium
       Specific Conductance (uS/cm, 0 oC) = 780471
                          Density (g/cm3)  =   1.33686
                               Volume (L)  =   0.82067
                        Activity of water  =   0.268
                           Ionic strength  =  1.806e+001
                       Mass of water (kg)  =  6.972e-001
                 Total alkalinity (eq/kg)  =  3.356e-003
                    Total carbon (mol/kg)  =  0.000e+000
                       Total CO2 (mol/kg)  =  0.000e+000
                      Temperature (deg C)  =   0.00
                  Electrical balance (eq)  = -1.614e-011
 Percent error, 100*(Cat-|An|)/(Cat+|An|)  =  -0.00
                               Iterations  =  21
                         Gamma iterations  =   7
                      Osmotic coefficient  =   4.04907
                         Density of water  =   0.99983
                                  Total H  = 7.740512e+001
                                  Total O  = 3.870373e+001

----------------------------Distribution of species----------------------------

                                                    MacInnes  MacInnes
                                MacInnes       Log       Log       Log    mole V
   Species          Molality    Activity  Molality  Activity     Gamma   cm3/mol

   OH-            1.350e-007  2.618e-010    -6.870    -9.582    -2.712     13.33
   H+             1.118e-009  1.145e-006    -8.951    -5.941     3.010      0.00
   H2O            5.551e+001  2.677e-001     1.744    -0.572     0.000     18.02
Cl           1.204e+001
   Cl-            1.204e+001  1.719e+001     1.081     1.235     0.154     21.69
K            2.202e-003
   K+             2.202e-003  6.407e-003    -2.657    -2.193     0.464     20.15
Mg           6.023e+000
   Mg+2           6.019e+000  1.000e+003     0.780     6.175     5.395    -14.03
   MgOH+          3.356e-003  5.014e-002    -2.474    -1.300     1.174     (0)  

------------------------------Saturation indices-------------------------------

	Phase               SI   log IAP   log K(273 K,   1 atm)

	Bischofite        0.67      5.21    4.54  MgCl2:6H2O
	Brucite          -1.78    -12.99  -11.21  Mg(OH)2
	Carnallite       -0.00      4.25    4.25  KMgCl3:6H2O
	H2O(g)           -2.78     -0.57    2.21  H2O
	Sylvite          -1.58     -0.96    0.62  KCl


Reaction step 15.

Using solution 1.	
Using pure phase assemblage 1.	
Using temperature 1.	
Using reaction 1.	

Reaction 1.	

	 3.000e+000 moles of the following reaction have been added:

	                 Relative
	Reactant            moles

	KCl                  1.00000

	                 Relative
	Element             moles
	Cl                   1.00000
	K                    1.00000

-------------------------------Phase assemblage--------------------------------

                                                      Moles in assemblage
Phase               SI  log IAP  log K(T, P)   Initial       Final       Delta

Carnallite        0.00     4.25      4.25   1.000e+001  1.300e+001  3.000e+000

-----------------------------Solution composition------------------------------

	Elements           Molality       Moles

	Cl               1.184e+001  7.999e+000
	K                2.729e-003  1.844e-003
	Mg               5.919e+000  4.000e+000

----------------------------Description of solution----------------------------

                                       pH  =   6.035      Charge balance
                                       pe  =   4.000      Adjusted to redox equilibrium
       Specific Conductance (uS/cm, 0 oC) = 767132
                          Density (g/cm3)  =   1.33339
                               Volume (L)  =   0.79238
                        Activity of water  =   0.280
                           Ionic strength  =  1.775e+001
                       Mass of water (kg)  =  6.757e-001
                 Total alkalinity (eq/kg)  =  3.463e-003
                    Total carbon (mol/kg)  =  0.000e+000
                       Total CO2 (mol/kg)  =  0.000e+000
                      Temperature (deg C)  =   0.00
                  Electrical balance (eq)  = -2.051e-011
 Percent error, 100*(Cat-|An|)/(Cat+|An|)  =  -0.00
                               Iterations  =  20
                         Gamma iterations  =   7
                      Osmotic coefficient  =   3.97788
                         Density of water  =   0.99983
                                  Total H  = 7.500882e+001
                                  Total O  = 3.750558e+001

----------------------------Distribution of species----------------------------

                                                    MacInnes  MacInnes
                                MacInnes       Log       Log       Log    mole V
   Species          Molality    Activity  Molality  Activity     Gamma   cm3/mol

   OH-            1.621e-007  3.402e-010    -6.790    -9.468    -2.678     13.03
   H+             1.022e-009  9.220e-007    -8.990    -6.035     2.955      0.00
   H2O            5.551e+001  2.801e-001     1.744    -0.553     0.000     18.02
Cl           1.184e+001
   Cl-            1.184e+001  1.633e+001     1.073     1.213     0.140     21.63
K            2.729e-003
   K+             2.729e-003  7.830e-003    -2.564    -2.106     0.458     19.95
Mg           5.919e+000
   Mg+2           5.916e+000  1.000e+003     0.772     6.036     5.264    -14.12
   MgOH+          3.463e-003  4.736e-002    -2.461    -1.325     1.136     (0)  

------------------------------Saturation indices-------------------------------

	Phase               SI   log IAP   log K(273 K,   1 atm)

	Bischofite        0.61      5.15    4.54  MgCl2:6H2O
	Brucite          -1.69    -12.90  -11.21  Mg(OH)2
	Carnallite        0.00      4.25    4.25  KMgCl3:6H2O
	H2O(g)           -2.76     -0.55    2.21  H2O
	Sylvite          -1.51     -0.89    0.62  KCl


Reaction step 16.

Using solution 1.	
Using pure phase assemblage 1.	
Using temperature 1.	
Using reaction 1.	

Reaction 1.	

	 3.200e+000 moles of the following reaction have been added:

	                 Relative
	Reactant            moles

	KCl                  1.00000

	                 Relative
	Element             moles
	Cl                   1.00000
	K                    1.00000

-------------------------------Phase assemblage--------------------------------

                                                      Moles in assemblage
Phase               SI  log IAP  log K(T, P)   Initial       Final       Delta

Carnallite        0.00     4.25      4.25   1.000e+001  1.320e+001  3.200e+000

-----------------------------Solution composition------------------------------

	Elements           Molality       Moles

	Cl               1.162e+001  7.600e+000
	K                3.448e-003  2.255e-003
	Mg               5.810e+000  3.800e+000

----------------------------Description of solution----------------------------

                                       pH  =   6.136      Charge balance
                                       pe  =   4.000      Adjusted to redox equilibrium
       Specific Conductance (uS/cm, 0 oC) = 752932
                          Density (g/cm3)  =   1.32973
                               Volume (L)  =   0.76407
                        Activity of water  =   0.294
                           Ionic strength  =  1.742e+001
                       Mass of water (kg)  =  6.541e-001
                 Total alkalinity (eq/kg)  =  3.578e-003
                    Total carbon (mol/kg)  =  0.000e+000
                       Total CO2 (mol/kg)  =  0.000e+000
                      Temperature (deg C)  =   0.00
                  Electrical balance (eq)  = -7.932e-012
 Percent error, 100*(Cat-|An|)/(Cat+|An|)  =  -0.00
                               Iterations  =  20
                         Gamma iterations  =   6
                      Osmotic coefficient  =   3.90245
                         Density of water  =   0.99983
                                  Total H  = 7.261376e+001
                                  Total O  = 3.630805e+001

----------------------------Distribution of species----------------------------

                                                    MacInnes  MacInnes
                                MacInnes       Log       Log       Log    mole V
   Species          Molality    Activity  Molality  Activity     Gamma   cm3/mol

   OH-            1.968e-007  4.494e-010    -6.706    -9.347    -2.641     12.69
   H+             9.291e-010  7.317e-007    -9.032    -6.136     2.896      0.00
   H2O            5.551e+001  2.936e-001     1.744    -0.532     0.000     18.02
Cl           1.162e+001
   Cl-            1.162e+001  1.547e+001     1.065     1.189     0.124     21.56
K            3.448e-003
   K+             3.448e-003  9.738e-003    -2.462    -2.012     0.451     19.73
Mg           5.810e+000
   Mg+2           5.806e+000  1.000e+003     0.764     5.889     5.125    -14.22
   MgOH+          3.577e-003  4.458e-002    -2.446    -1.351     1.096     (0)  

------------------------------Saturation indices-------------------------------

	Phase               SI   log IAP   log K(273 K,   1 atm)

	Bischofite        0.53      5.07    4.54  MgCl2:6H2O
	Brucite          -1.60    -12.81  -11.21  Mg(OH)2
	Carnallite        0.00      4.25    4.25  KMgCl3:6H2O
	H2O(g)           -2.74     -0.53    2.21  H2O
	Sylvite          -1.44     -0.82    0.62  KCl


Reaction step 17.

Using solution 1.	
Using pure phase assemblage 1.	
Using temperature 1.	
Using reaction 1.	

Reaction 1.	

	 3.400e+000 moles of the following reaction have been added:

	                 Relative
	Reactant            moles

	KCl                  1.00000

	                 Relative
	Element             moles
	Cl                   1.00000
	K                    1.00000

-------------------------------Phase assemblage--------------------------------

                                                      Moles in assemblage
Phase               SI  log IAP  log K(T, P)   Initial       Final       Delta

Carnallite        0.00     4.25      4.25   1.000e+001  1.340e+001  3.400e+000

-----------------------------Solution composition------------------------------

	Elements           Molality       Moles

	Cl               1.139e+001  7.201e+000
	K                4.452e-003  2.816e-003
	Mg               5.692e+000  3.600e+000

----------------------------Description of solution----------------------------

                                       pH  =   6.243      Charge balance
                                       pe  =   4.000      Adjusted to redox equilibrium
       Specific Conductance (uS/cm, 0 oC) = 737792
                          Density (g/cm3)  =   1.32566
                               Volume (L)  =   0.73586
                        Activity of water  =   0.308
                           Ionic strength  =  1.707e+001
                       Mass of water (kg)  =  6.325e-001
                 Total alkalinity (eq/kg)  =  3.700e-003
                    Total carbon (mol/kg)  =  0.000e+000
                       Total CO2 (mol/kg)  =  0.000e+000
                      Temperature (deg C)  =   0.00
                  Electrical balance (eq)  = -2.459e-011
 Percent error, 100*(Cat-|An|)/(Cat+|An|)  =  -0.00
                               Iterations  =  22
                         Gamma iterations  =   7
                      Osmotic coefficient  =   3.82240
                         Density of water  =   0.99983
                                  Total H  = 7.022048e+001
                                  Total O  = 3.511141e+001

----------------------------Distribution of species----------------------------

                                                    MacInnes  MacInnes
                                MacInnes       Log       Log       Log    mole V
   Species          Molality    Activity  Molality  Activity     Gamma   cm3/mol

   OH-            2.420e-007  6.045e-010    -6.616    -9.219    -2.602     12.34
   H+             8.386e-010  5.713e-007    -9.076    -6.243     2.833      0.00
   H2O            5.551e+001  3.084e-001     1.744    -0.511     0.000     18.02
Cl           1.139e+001
   Cl-            1.139e+001  1.460e+001     1.056     1.164     0.108     21.49
K            4.452e-003
   K+             4.452e-003  1.235e-002    -2.351    -1.908     0.443     19.49
Mg           5.692e+000
   Mg+2           5.689e+000  1.000e+003     0.755     5.733     4.978    -14.33
   MgOH+          3.699e-003  4.183e-002    -2.432    -1.378     1.053     (0)  

------------------------------Saturation indices-------------------------------

	Phase               SI   log IAP   log K(273 K,   1 atm)

	Bischofite        0.46      5.00    4.54  MgCl2:6H2O
	Brucite          -1.50    -12.70  -11.21  Mg(OH)2
	Carnallite        0.00      4.25    4.25  KMgCl3:6H2O
	H2O(g)           -2.72     -0.51    2.21  H2O
	Sylvite          -1.36     -0.74    0.62  KCl


Reaction step 18.

Using solution 1.	
Using pure phase assemblage 1.	
Using temperature 1.	
Using reaction 1.	

Reaction 1.	

	 3.600e+000 moles of the following reaction have been added:

	                 Relative
	Reactant            moles

	KCl                  1.00000

	                 Relative
	Element             moles
	Cl                   1.00000
	K                    1.00000

-------------------------------Phase assemblage--------------------------------

                                                      Moles in assemblage
Phase               SI  log IAP  log K(T, P)   Initial       Final       Delta

Carnallite       -0.00     4.25      4.25   1.000e+001  1.360e+001  3.599e+000

-----------------------------Solution composition------------------------------

	Elements           Molality       Moles

	Cl               1.114e+001  6.804e+000
	K                5.890e-003  3.599e-003
	Mg               5.567e+000  3.401e+000

----------------------------Description of solution----------------------------

                                       pH  =   6.358      Charge balance
                                       pe  =   4.000      Adjusted to redox equilibrium
       Specific Conductance (uS/cm, 0 oC) = 721631
                          Density (g/cm3)  =   1.32121
                               Volume (L)  =   0.70773
                        Activity of water  =   0.325
                           Ionic strength  =  1.670e+001
                       Mass of water (kg)  =  6.110e-001
                 Total alkalinity (eq/kg)  =  3.830e-003
                    Total carbon (mol/kg)  =  0.000e+000
                       Total CO2 (mol/kg)  =  0.000e+000
                      Temperature (deg C)  =   0.00
                  Electrical balance (eq)  = -2.373e-011
 Percent error, 100*(Cat-|An|)/(Cat+|An|)  =  -0.00
                               Iterations  =  22
                         Gamma iterations  =   7
                      Osmotic coefficient  =   3.73733
                         Density of water  =   0.99983
                                  Total H  = 6.782988e+001
                                  Total O  = 3.391611e+001

----------------------------Distribution of species----------------------------

                                                    MacInnes  MacInnes
                                MacInnes       Log       Log       Log    mole V
   Species          Molality    Activity  Molality  Activity     Gamma   cm3/mol

   OH-            3.015e-007  8.296e-010    -6.521    -9.081    -2.560     11.96
   H+             7.513e-010  4.383e-007    -9.124    -6.358     2.766      0.00
   H2O            5.551e+001  3.247e-001     1.744    -0.489     0.000     18.02
Cl           1.114e+001
   Cl-            1.114e+001  1.373e+001     1.047     1.138     0.091     21.41
K            5.890e-003
   K+             5.890e-003  1.602e-002    -2.230    -1.795     0.435     19.24
Mg           5.567e+000
   Mg+2           5.563e+000  1.000e+003     0.745     5.566     4.821    -14.44
   MgOH+          3.830e-003  3.911e-002    -2.417    -1.408     1.009     (0)  

------------------------------Saturation indices-------------------------------

	Phase               SI   log IAP   log K(273 K,   1 atm)

	Bischofite        0.37      4.91    4.54  MgCl2:6H2O
	Brucite          -1.39    -12.60  -11.21  Mg(OH)2
	Carnallite       -0.00      4.25    4.25  KMgCl3:6H2O
	H2O(g)           -2.70     -0.49    2.21  H2O
	Sylvite          -1.28     -0.66    0.62  KCl


Reaction step 19.

Using solution 1.	
Using pure phase assemblage 1.	
Using temperature 1.	
Using reaction 1.	

Reaction 1.	

	 3.800e+000 moles of the following reaction have been added:

	                 Relative
	Reactant            moles

	KCl                  1.00000

	                 Relative
	Element             moles
	Cl                   1.00000
	K                    1.00000

-------------------------------Phase assemblage--------------------------------

                                                      Moles in assemblage
Phase               SI  log IAP  log K(T, P)   Initial       Final       Delta

Carnallite       -0.00     4.25      4.25   1.000e+001  1.380e+001  3.798e+000

-----------------------------Solution composition------------------------------

	Elements           Molality       Moles

	Cl               1.087e+001  6.407e+000
	K                8.011e-003  4.722e-003
	Mg               5.432e+000  3.202e+000

----------------------------Description of solution----------------------------

                                       pH  =   6.482      Charge balance
                                       pe  =   4.000      Adjusted to redox equilibrium
       Specific Conductance (uS/cm, 0 oC) = 704363
                          Density (g/cm3)  =   1.31633
                               Volume (L)  =   0.67970
                        Activity of water  =   0.342
                           Ionic strength  =  1.630e+001
                       Mass of water (kg)  =  5.895e-001
                 Total alkalinity (eq/kg)  =  3.970e-003
                    Total carbon (mol/kg)  =  0.000e+000
                       Total CO2 (mol/kg)  =  0.000e+000
                      Temperature (deg C)  =   0.00
                  Electrical balance (eq)  = -2.840e-011
 Percent error, 100*(Cat-|An|)/(Cat+|An|)  =  -0.00
                               Iterations  =  22
                         Gamma iterations  =   7
                      Osmotic coefficient  =   3.64678
                         Density of water  =   0.99983
                                  Total H  = 6.544336e+001
                                  Total O  = 3.272285e+001

----------------------------Distribution of species----------------------------

                                                    MacInnes  MacInnes
                                MacInnes       Log       Log       Log    mole V
   Species          Molality    Activity  Molality  Activity     Gamma   cm3/mol

   OH-            3.811e-007  1.164e-009    -6.419    -8.934    -2.515     11.56
   H+             6.674e-010  3.296e-007    -9.176    -6.482     2.694      0.00
   H2O            5.551e+001  3.425e-001     1.744    -0.465     0.000     18.02
Cl           1.087e+001
   Cl-            1.087e+001  1.286e+001     1.036     1.109     0.073     21.32
K            8.011e-003
   K+             8.011e-003  2.130e-002    -2.096    -1.672     0.425     18.98
Mg           5.432e+000
   Mg+2           5.428e+000  1.000e+003     0.735     5.388     4.654    -14.56
   MgOH+          3.969e-003  3.644e-002    -2.401    -1.438     0.963     (0)  

------------------------------Saturation indices-------------------------------

	Phase               SI   log IAP   log K(273 K,   1 atm)

	Bischofite        0.27      4.81    4.54  MgCl2:6H2O
	Brucite          -1.27    -12.48  -11.21  Mg(OH)2
	Carnallite       -0.00      4.25    4.25  KMgCl3:6H2O
	H2O(g)           -2.68     -0.47    2.21  H2O
	Sylvite          -1.18     -0.56    0.62  KCl


Reaction step 20.

Using solution 1.	
Using pure phase assemblage 1.	
Using temperature 1.	
Using reaction 1.	

Reaction 1.	

	 4.000e+000 moles of the following reaction have been added:

	                 Relative
	Reactant            moles

	KCl                  1.00000

	                 Relative
	Element             moles
	Cl                   1.00000
	K                    1.00000

-------------------------------Phase assemblage--------------------------------

                                                      Moles in assemblage
Phase               SI  log IAP  log K(T, P)   Initial       Final       Delta

Carnallite        0.00     4.25      4.25   1.000e+001  1.400e+001  3.996e+000

-----------------------------Solution composition------------------------------

	Elements           Molality       Moles

	Cl               1.058e+001  6.012e+000
	K                1.124e-002  6.384e-003
	Mg               5.288e+000  3.004e+000

----------------------------Description of solution----------------------------

                                       pH  =   6.615      Charge balance
                                       pe  =   4.000      Adjusted to redox equilibrium
       Specific Conductance (uS/cm, 0 oC) = 685911
                          Density (g/cm3)  =   1.31089
                               Volume (L)  =   0.65185
                        Activity of water  =   0.362
                           Ionic strength  =  1.587e+001
                       Mass of water (kg)  =  5.681e-001
                 Total alkalinity (eq/kg)  =  4.119e-003
                    Total carbon (mol/kg)  =  0.000e+000
                       Total CO2 (mol/kg)  =  0.000e+000
                      Temperature (deg C)  =   0.00
                  Electrical balance (eq)  = -4.475e-010
 Percent error, 100*(Cat-|An|)/(Cat+|An|)  =  -0.00
                               Iterations  =  21
                         Gamma iterations  =   7
                      Osmotic coefficient  =   3.55028
                         Density of water  =   0.99983
                                  Total H  = 6.306330e+001
                                  Total O  = 3.153282e+001

----------------------------Distribution of species----------------------------

                                                    MacInnes  MacInnes
                                MacInnes       Log       Log       Log    mole V
   Species          Molality    Activity  Molality  Activity     Gamma   cm3/mol

   OH-            4.892e-007  1.671e-009    -6.311    -8.777    -2.466     11.14
   H+             5.874e-010  2.426e-007    -9.231    -6.615     2.616      0.00
   H2O            5.551e+001  3.621e-001     1.744    -0.441     0.000     18.02
Cl           1.058e+001
   Cl-            1.058e+001  1.199e+001     1.025     1.079     0.054     21.24
K            1.124e-002
   K+             1.124e-002  2.913e-002    -1.949    -1.536     0.414     18.70
Mg           5.288e+000
   Mg+2           5.284e+000  1.000e+003     0.723     5.199     4.476    -14.69
   MgOH+          4.119e-003  3.382e-002    -2.385    -1.471     0.914     (0)  

------------------------------Saturation indices-------------------------------

	Phase               SI   log IAP   log K(273 K,   1 atm)

	Bischofite        0.17      4.71    4.54  MgCl2:6H2O
	Brucite          -1.15    -12.36  -11.21  Mg(OH)2
	Carnallite        0.00      4.25    4.25  KMgCl3:6H2O
	H2O(g)           -2.65     -0.44    2.21  H2O
	Sylvite          -1.07     -0.46    0.62  KCl


Reaction step 21.

Using solution 1.	
Using pure phase assemblage 1.	
Using temperature 1.	
Using reaction 1.	

Reaction 1.	

	 4.200e+000 moles of the following reaction have been added:

	                 Relative
	Reactant            moles

	KCl                  1.00000

	                 Relative
	Element             moles
	Cl                   1.00000
	K                    1.00000

-------------------------------Phase assemblage--------------------------------

                                                      Moles in assemblage
Phase               SI  log IAP  log K(T, P)   Initial       Final       Delta

Carnallite        0.00     4.25      4.25   1.000e+001  1.419e+001  4.193e+000

-----------------------------Solution composition------------------------------

	Elements           Molality       Moles

	Cl               1.028e+001  5.620e+000
	K                1.632e-002  8.922e-003
	Mg               5.134e+000  2.807e+000

----------------------------Description of solution----------------------------

                                       pH  =   6.758      Charge balance
                                       pe  =   4.000      Adjusted to redox equilibrium
       Specific Conductance (uS/cm, 0 oC) = 666225
                          Density (g/cm3)  =   1.30502
                               Volume (L)  =   0.62416
                        Activity of water  =   0.384
                           Ionic strength  =  1.541e+001
                       Mass of water (kg)  =  5.467e-001
                 Total alkalinity (eq/kg)  =  4.280e-003
                    Total carbon (mol/kg)  =  0.000e+000
                       Total CO2 (mol/kg)  =  0.000e+000
                      Temperature (deg C)  =   0.00
                  Electrical balance (eq)  = -4.037e-010
 Percent error, 100*(Cat-|An|)/(Cat+|An|)  =  -0.00
                               Iterations  =  23
                         Gamma iterations  =   7
                      Osmotic coefficient  =   3.44736
                         Density of water  =   0.99983
                                  Total H  = 6.069375e+001
                                  Total O  = 3.034805e+001

----------------------------Distribution of species----------------------------

                                                    MacInnes  MacInnes
                                MacInnes       Log       Log       Log    mole V
   Species          Molality    Activity  Molality  Activity     Gamma   cm3/mol

   OH-            6.384e-007  2.463e-009    -6.195    -8.609    -2.414     10.67
   H+             5.118e-010  1.744e-007    -9.291    -6.758     2.533      0.00
   H2O            5.551e+001  3.836e-001     1.744    -0.416     0.000     18.02
Cl           1.028e+001
   Cl-            1.028e+001  1.113e+001     1.012     1.047     0.035     21.14
K            1.632e-002
   K+             1.632e-002  4.108e-002    -1.787    -1.386     0.401     18.39
Mg           5.134e+000
   Mg+2           5.129e+000  1.000e+003     0.710     4.996     4.286    -14.83
   MgOH+          4.280e-003  3.126e-002    -2.369    -1.505     0.864     (0)  

------------------------------Saturation indices-------------------------------

	Phase               SI   log IAP   log K(273 K,   1 atm)

	Bischofite        0.05      4.59    4.54  MgCl2:6H2O
	Brucite          -1.02    -12.22  -11.21  Mg(OH)2
	Carnallite        0.00      4.25    4.25  KMgCl3:6H2O
	H2O(g)           -2.63     -0.42    2.21  H2O
	Sylvite          -0.96     -0.34    0.62  KCl


Reaction step 22.

Using solution 1.	
Using pure phase assemblage 1.	
Using temperature 1.	
Using reaction 1.	

Reaction 1.	

	 4.400e+000 moles of the following reaction have been added:

	                 Relative
	Reactant            moles

	KCl                  1.00000

	                 Relative
	Element             moles
	Cl                   1.00000
	K                    1.00000

-------------------------------Phase assemblage--------------------------------

                                                      Moles in assemblage
Phase               SI  log IAP  log K(T, P)   Initial       Final       Delta

Carnallite        0.00     4.25      4.25   1.000e+001  1.439e+001  4.389e+000

[...]
                 Total alkalinity (eq/kg)  =  4.562e-003
                    Total carbon (mol/kg)  =  0.000e+000
                       Total CO2 (mol/kg)  =  0.000e+000
                      Temperature (deg C)  =  75.00
                  Electrical balance (eq)  = -3.833e-011
 Percent error, 100*(Cat-|An|)/(Cat+|An|)  =  -0.00
                               Iterations  =  38
                         Gamma iterations  =   9
                      Osmotic coefficient  =   2.50722
                         Density of water  =   0.97486
                                  Total H  = 5.694875e+001
                                  Total O  = 2.847554e+001

----------------------------Distribution of species----------------------------

                                                    MacInnes  MacInnes
                                MacInnes       Log       Log       Log    mole V
   Species          Molality    Activity  Molality  Activity     Gamma   cm3/mol

   OH-            2.229e-006  1.451e-008    -5.652    -7.838    -2.186     15.62
   H+             5.821e-008  6.662e-006    -7.235    -5.176     2.059      0.00
   H2O            5.551e+001  4.742e-001     1.744    -0.324     0.000     18.48
Cl           1.069e+001
   Cl-            1.069e+001  7.500e+000     1.029     0.875    -0.154     21.03
K            9.685e-001
   K+             9.685e-001  2.219e+000    -0.014     0.346     0.360     14.75
Mg           4.863e+000
   Mg+2           4.858e+000  1.000e+003     0.686     3.330     2.644    -16.31
   MgOH+          4.560e-003  9.923e-003    -2.341    -2.003     0.338     (0)  

------------------------------Saturation indices-------------------------------

	Phase               SI   log IAP   log K(348 K,   1 atm)

	Bischofite       -1.19      3.14    4.32  MgCl2:6H2O
	Brucite          -1.98    -12.35  -10.37  Mg(OH)2
	Carnallite        0.00      4.36    4.36  KMgCl3:6H2O
	H2O(g)           -0.75     -0.32    0.42  H2O
	Sylvite          -0.12      1.22    1.34  KCl


Reaction step 26.

Using solution 1.	
Using pure phase assemblage 1.	
Using temperature 1.	
Using reaction 1.	

Reaction 1.	

	 5.200e+000 moles of the following reaction have been added:

	                 Relative
	Reactant            moles

	KCl                  1.00000

	                 Relative
	Element             moles
	Cl                   1.00000
	K                    1.00000

-------------------------------Phase assemblage--------------------------------

                                                      Moles in assemblage
Phase               SI  log IAP  log K(T, P)   Initial       Final       Delta

Carnallite        0.00     4.36      4.36   1.000e+001  1.463e+001  4.626e+000

-----------------------------Solution composition------------------------------

	Elements           Molality       Moles

	Cl               1.064e+001  5.321e+000
	K                1.152e+000  5.760e-001
	Mg               4.748e+000  2.374e+000

----------------------------Description of solution----------------------------

                                       pH  =   5.240      Charge balance
                                       pe  =   4.000      Adjusted to redox equilibrium
       Specific Conductance (uS/cm, 75 oC) = 1863658
                          Density (g/cm3)  =   1.29352
                               Volume (L)  =   0.59435
                        Activity of water  =   0.483
                           Ionic strength  =  1.539e+001
                       Mass of water (kg)  =  4.999e-001
                 Total alkalinity (eq/kg)  =  4.681e-003
                    Total carbon (mol/kg)  =  0.000e+000
                       Total CO2 (mol/kg)  =  0.000e+000
                      Temperature (deg C)  =  75.00
                  Electrical balance (eq)  = -6.754e-010
 Percent error, 100*(Cat-|An|)/(Cat+|An|)  =  -0.00
                               Iterations  =  40
                         Gamma iterations  =  10
                      Osmotic coefficient  =   2.44453
                         Density of water  =   0.97486
                                  Total H  = 5.549852e+001
                                  Total O  = 2.775043e+001

----------------------------Distribution of species----------------------------

                                                    MacInnes  MacInnes
                                MacInnes       Log       Log       Log    mole V
   Species          Molality    Activity  Molality  Activity     Gamma   cm3/mol

   OH-            2.309e-006  1.709e-008    -5.637    -7.767    -2.131     15.44
   H+             5.612e-008  5.757e-006    -7.251    -5.240     2.011      0.00
   H2O            5.551e+001  4.826e-001     1.744    -0.316     0.000     18.48
Cl           1.064e+001
   Cl-            1.064e+001  7.486e+000     1.027     0.874    -0.153     21.02
K            1.152e+000
   K+             1.152e+000  2.521e+000     0.062     0.402     0.340     14.70
Mg           4.748e+000
   Mg+2           4.743e+000  1.000e+003     0.676     3.231     2.555    -16.36
   MgOH+          4.679e-003  9.305e-003    -2.330    -2.031     0.299     (0)  

------------------------------Saturation indices-------------------------------

	Phase               SI   log IAP   log K(348 K,   1 atm)

	Bischofite       -1.24      3.08    4.32  MgCl2:6H2O
	Brucite          -1.93    -12.30  -10.37  Mg(OH)2
	Carnallite        0.00      4.36    4.36  KMgCl3:6H2O
	H2O(g)           -0.74     -0.32    0.42  H2O
	Sylvite          -0.07      1.28    1.34  KCl


Reaction step 27.

Using solution 1.	
Using pure phase assemblage 1.	
Using temperature 1.	
Using reaction 1.	

Reaction 1.	

	 5.400e+000 moles of the following reaction have been added:

	                 Relative
	Reactant            moles

	KCl                  1.00000

	                 Relative
	Element             moles
	Cl                   1.00000
	K                    1.00000

-------------------------------Phase assemblage--------------------------------

                                                      Moles in assemblage
Phase               SI  log IAP  log K(T, P)   Initial       Final       Delta

Carnallite        0.00     4.36      4.36   1.000e+001  1.474e+001  4.739e+000

-----------------------------Solution composition------------------------------

	Elements           Molality       Moles

	Cl               1.063e+001  5.182e+000
	K                1.360e+000  6.631e-001
	Mg               4.635e+000  2.261e+000

----------------------------Description of solution----------------------------

                                       pH  =   5.298      Charge balance
                                       pe  =   4.000      Adjusted to redox equilibrium
       Specific Conductance (uS/cm, 75 oC) = 1877054
                          Density (g/cm3)  =   1.29291
                               Volume (L)  =   0.58190
                        Activity of water  =   0.490
                           Ionic strength  =  1.526e+001
                       Mass of water (kg)  =  4.877e-001
                 Total alkalinity (eq/kg)  =  4.798e-003
                    Total carbon (mol/kg)  =  0.000e+000
                       Total CO2 (mol/kg)  =  0.000e+000
                      Temperature (deg C)  =  75.00
                  Electrical balance (eq)  = -2.281e-009
 Percent error, 100*(Cat-|An|)/(Cat+|An|)  =  -0.00
                               Iterations  =  39
                         Gamma iterations  =  10
                      Osmotic coefficient  =   2.38252
                         Density of water  =   0.97486
                                  Total H  = 5.414347e+001
                                  Total O  = 2.707290e+001

----------------------------Distribution of species----------------------------

                                                    MacInnes  MacInnes
                                MacInnes       Log       Log       Log    mole V
   Species          Molality    Activity  Molality  Activity     Gamma   cm3/mol

   OH-            2.355e-006  1.983e-008    -5.628    -7.703    -2.075     15.29
   H+             5.430e-008  5.038e-006    -7.265    -5.298     1.967      0.00
   H2O            5.551e+001  4.900e-001     1.744    -0.310     0.000     18.48
Cl           1.063e+001
   Cl-            1.063e+001  7.488e+000     1.026     0.874    -0.152     21.02
K            1.360e+000
   K+             1.360e+000  2.845e+000     0.133     0.454     0.321     14.67
Mg           4.635e+000
   Mg+2           4.631e+000  1.000e+003     0.666     3.139     2.473    -16.40
   MgOH+          4.796e-003  8.729e-003    -2.319    -2.059     0.260     (0)  

------------------------------Saturation indices-------------------------------

	Phase               SI   log IAP   log K(348 K,   1 atm)

	Bischofite       -1.29      3.03    4.32  MgCl2:6H2O
	Brucite          -1.90    -12.27  -10.37  Mg(OH)2
	Carnallite        0.00      4.36    4.36  KMgCl3:6H2O
	H2O(g)           -0.73     -0.31    0.42  H2O
	Sylvite          -0.01      1.33    1.34  KCl


Reaction step 28.

Using solution 1.	
Using pure phase assemblage 1.	
Using temperature 1.	
Using reaction 1.	

Reaction 1.	

	 5.600e+000 moles of the following reaction have been added:

	                 Relative
	Reactant            moles

	KCl                  1.00000

	                 Relative
	Element             moles
	Cl                   1.00000
	K                    1.00000

-------------------------------Phase assemblage--------------------------------

                                                      Moles in assemblage
Phase               SI  log IAP  log K(T, P)   Initial       Final       Delta

Carnallite        0.00     4.36      4.36   1.000e+001  1.484e+001  4.845e+000

-----------------------------Solution composition------------------------------

	Elements           Molality       Moles

	Cl               1.064e+001  5.065e+000
	K                1.590e+000  7.575e-001
	Mg               4.525e+000  2.155e+000

----------------------------Description of solution----------------------------

                                       pH  =   5.350      Charge balance
                                       pe  =   4.000      Adjusted to redox equilibrium
       Specific Conductance (uS/cm, 75 oC) = 1894741
                          Density (g/cm3)  =   1.29290
                               Volume (L)  =   0.57074
                        Activity of water  =   0.496
                           Ionic strength  =  1.516e+001
                       Mass of water (kg)  =  4.763e-001
                 Total alkalinity (eq/kg)  =  4.913e-003
                    Total carbon (mol/kg)  =  0.000e+000
                       Total CO2 (mol/kg)  =  0.000e+000
                      Temperature (deg C)  =  75.00
                  Electrical balance (eq)  = -6.997e-009
 Percent error, 100*(Cat-|An|)/(Cat+|An|)  =  -0.00
                               Iterations  =  39
                         Gamma iterations  =  10
                      Osmotic coefficient  =   2.32151
                         Density of water  =   0.97486
                                  Total H  = 5.287663e+001
                                  Total O  = 2.643949e+001

----------------------------Distribution of species----------------------------

                                                    MacInnes  MacInnes
                                MacInnes       Log       Log       Log    mole V
   Species          Molality    Activity  Molality  Activity     Gamma   cm3/mol

   OH-            2.365e-006  2.267e-008    -5.626    -7.645    -2.018     15.18
   H+             5.272e-008  4.464e-006    -7.278    -5.350     1.928      0.00
   H2O            5.551e+001  4.963e-001     1.744    -0.304     0.000     18.48
Cl           1.064e+001
   Cl-            1.064e+001  7.505e+000     1.027     0.875    -0.151     21.02
K            1.590e+000
   K+             1.590e+000  3.187e+000     0.202     0.503     0.302     14.64
Mg           4.525e+000
   Mg+2           4.520e+000  1.000e+003     0.655     3.053     2.398    -16.44
   MgOH+          4.911e-003  8.189e-003    -2.309    -2.087     0.222     (0)  

------------------------------Saturation indices-------------------------------

	Phase               SI   log IAP   log K(348 K,   1 atm)

	Bischofite       -1.34      2.98    4.32  MgCl2:6H2O
	Brucite          -1.87    -12.24  -10.37  Mg(OH)2
	Carnallite        0.00      4.36    4.36  KMgCl3:6H2O
	H2O(g)           -0.73     -0.30    0.42  H2O
	Sylvite           0.04      1.38    1.34  KCl


Reaction step 29.

Using solution 1.	
Using pure phase assemblage 1.	
Using temperature 1.	
Using reaction 1.	

Reaction 1.	

	 5.800e+000 moles of the following reaction have been added:

	                 Relative
	Reactant            moles

	KCl                  1.00000

	                 Relative
	Element             moles
	Cl                   1.00000
	K                    1.00000

-------------------------------Phase assemblage--------------------------------

                                                      Moles in assemblage
Phase               SI  log IAP  log K(T, P)   Initial       Final       Delta

Carnallite        0.00     4.36      4.36   1.000e+001  1.494e+001  4.944e+000

-----------------------------Solution composition------------------------------

	Elements           Molality       Moles

	Cl               1.067e+001  4.969e+000
	K                1.844e+000  8.586e-001
	Mg               4.416e+000  2.056e+000

----------------------------Description of solution----------------------------

                                       pH  =   5.397      Charge balance
                                       pe  =   4.000      Adjusted to redox equilibrium
       Specific Conductance (uS/cm, 75 oC) = 1916737
                          Density (g/cm3)  =   1.29346
                               Volume (L)  =   0.56079
                        Activity of water  =   0.502
                           Ionic strength  =  1.508e+001
                       Mass of water (kg)  =  4.656e-001
                 Total alkalinity (eq/kg)  =  5.026e-003
                    Total carbon (mol/kg)  =  0.000e+000
                       Total CO2 (mol/kg)  =  0.000e+000
                      Temperature (deg C)  =  75.00
                  Electrical balance (eq)  = -5.727e-012
 Percent error, 100*(Cat-|An|)/(Cat+|An|)  =  -0.00
                               Iterations  =  41
                         Gamma iterations  =  10
                      Osmotic coefficient  =   2.26172
                         Density of water  =   0.97486
                                  Total H  = 5.169036e+001
                                  Total O  = 2.584635e+001

----------------------------Distribution of species----------------------------

                                                    MacInnes  MacInnes
                                MacInnes       Log       Log       Log    mole V
   Species          Molality    Activity  Molality  Activity     Gamma   cm3/mol

   OH-            2.340e-006  2.554e-008    -5.631    -7.593    -1.962     15.11
   H+             5.138e-008  4.004e-006    -7.289    -5.397     1.892      0.00
   H2O            5.551e+001  5.016e-001     1.744    -0.300     0.000     18.48
Cl           1.067e+001
   Cl-            1.067e+001  7.538e+000     1.028     0.877    -0.151     21.01
K            1.844e+000
   K+             1.844e+000  3.545e+000     0.266     0.550     0.284     14.63
Mg           4.416e+000
   Mg+2           4.411e+000  9.408e+002     0.645     2.974     2.329    -16.46
   MgOH+          5.024e-003  7.682e-003    -2.299    -2.115     0.184     (0)  

------------------------------Saturation indices-------------------------------

	Phase               SI   log IAP   log K(348 K,   1 atm)

	Bischofite       -1.39      2.93    4.32  MgCl2:6H2O
	Brucite          -1.84    -12.21  -10.37  Mg(OH)2
	Carnallite        0.00      4.36    4.36  KMgCl3:6H2O
	H2O(g)           -0.72     -0.30    0.42  H2O
	Sylvite           0.08      1.43    1.34  KCl


Reaction step 30.

Using solution 1.	
Using pure phase assemblage 1.	
Using temperature 1.	
Using reaction 1.	

Reaction 1.	

	 6.000e+000 moles of the following reaction have been added:

	                 Relative
	Reactant            moles

	KCl                  1.00000

	                 Relative
	Element             moles
	Cl                   1.00000
	K                    1.00000

-------------------------------Phase assemblage--------------------------------

                                                      Moles in assemblage
Phase               SI  log IAP  log K(T, P)   Initial       Final       Delta

Carnallite        0.00     4.36      4.36   1.000e+001  1.504e+001  5.036e+000

-----------------------------Solution composition------------------------------

	Elements           Molality       Moles

	Cl               1.073e+001  4.891e+000
	K                2.120e+000  9.659e-001
	Mg               4.310e+000  1.964e+000

----------------------------Description of solution----------------------------

                                       pH  =   5.440      Charge balance
                                       pe  =   4.000      Adjusted to redox equilibrium
       Specific Conductance (uS/cm, 75 oC) = 1942983
                          Density (g/cm3)  =   1.29459
                               Volume (L)  =   0.55191
                        Activity of water  =   0.506
                           Ionic strength  =  1.504e+001
                       Mass of water (kg)  =  4.556e-001
                 Total alkalinity (eq/kg)  =  5.137e-003
                    Total carbon (mol/kg)  =  0.000e+000
                       Total CO2 (mol/kg)  =  0.000e+000
                      Temperature (deg C)  =  75.00
                  Electrical balance (eq)  = -3.992e-010
 Percent error, 100*(Cat-|An|)/(Cat+|An|)  =  -0.00
                               Iterations  =  47
                         Gamma iterations  =  11
                      Osmotic coefficient  =   2.20334
                         Density of water  =   0.97486
                                  Total H  = 5.057708e+001
                                  Total O  = 2.528971e+001

----------------------------Distribution of species----------------------------

                                                    MacInnes  MacInnes
                                MacInnes       Log       Log       Log    mole V
   Species          Molality    Activity  Molality  Activity     Gamma   cm3/mol

   OH-            2.284e-006  2.839e-008    -5.641    -7.547    -1.906     15.06
   H+             5.026e-008  3.634e-006    -7.299    -5.440     1.859      0.00
   H2O            5.551e+001  5.059e-001     1.744    -0.296     0.000     18.48
Cl           1.073e+001
   Cl-            1.073e+001  7.586e+000     1.031     0.880    -0.151     21.01
K            2.120e+000
   K+             2.120e+000  3.915e+000     0.326     0.593     0.266     14.62
Mg           4.310e+000
   Mg+2           4.305e+000  7.937e+002     0.634     2.900     2.266    -16.47
   MgOH+          5.134e-003  7.203e-003    -2.290    -2.142     0.147     (0)  

------------------------------Saturation indices-------------------------------

	Phase               SI   log IAP   log K(348 K,   1 atm)

	Bischofite       -1.44      2.88    4.32  MgCl2:6H2O
	Brucite          -1.82    -12.19  -10.37  Mg(OH)2
	Carnallite        0.00      4.36    4.36  KMgCl3:6H2O
	H2O(g)           -0.72     -0.30    0.42  H2O
	Sylvite           0.13      1.47    1.34  KCl


------------------
End of simulation.
------------------

------------------------------------
Reading input data for simulation 5.
------------------------------------

-------------------------------
End of Run after 1.235 Seconds.
-------------------------------

