WARNING: Database file from DATABASE keyword is used; command line argument ignored.
   Input file: cc_P2
  Output file: cc_P2.out
Database file: ../database/phreeqc.dat

------------------
Reading data base.
------------------

	SOLUTION_MASTER_SPECIES
	SOLUTION_SPECIES
	PHASES
	GAS_BINARY_PARAMETERS
	EXCHANGE_MASTER_SPECIES
	EXCHANGE_SPECIES
	SURFACE_MASTER_SPECIES
	SURFACE_SPECIES
	MEAN_GAMMAS
	RATES
	END
------------------------------------
Reading input data for simulation 1.
------------------------------------

	DATABASE ../database/phreeqc.dat
	SELECTED_OUTPUT 101
	    file                 cc_P2_101.sel
	USER_PUNCH 101
	    headings Mu SC
	    start
	10 PUNCH STR_F$(MU, 20, 12)
	20 PUNCH STR_F$(SC, 20, 10)
	    end
	SOLUTION 1
	 pH 7 charge
	 temp 100
	EQUILIBRIUM_PHASES
	 Calcite
	SOLUTION_SPECIES
	Ca+2 + CO3-2 + H+ = CaHCO3+
		log_k	-100 # remove this complex, data from Ellis, 1963 and Segnit et al. 1962.
	REACTION
	 CO2 1
	 0 4*0.05 5*0.1 8*0.3
	INCREMENTAL_REACTIONS true
	GAS_PHASE
	 fixed_volume
	 volume 1
	 CO2(g) 0
	 H2O(g) 0
	USER_GRAPH
	 -headings tk #Ca_tot Ca+2 CaCO3 CaHCO3+ SI_arg
	 -plot_csv_file cc_tc100.dat
	 -axis_scale x_axis 0 70
	 -axis_titles "CO2 Pressure / bar" "Calcite solubility / (mol/kgw)"
	 10 graph_x pr_p("CO2(g)") * 1.013
	 20 graph_y  tot("Ca"), # mol("Ca+2"), mol("CaCO3"), mol("CaHCO3+")
	END
-------------------------------------------
Beginning of initial solution calculations.
-------------------------------------------

Initial solution 1.	

-----------------------------Solution composition------------------------------

	Elements           Molality       Moles

	Pure water     

----------------------------Description of solution----------------------------

                                       pH  =   6.119      Charge balance
                                       pe  =   4.000    
      Specific Conductance (µS/cm, 100°C)  = 0
                          Density (g/cm³)  =   0.95835
                               Volume (L)  =   1.04346
                        Viscosity (mPa s)  =   0.28158
                        Activity of water  =   1.000
                 Ionic strength (mol/kgw)  =   7.610e-07
                       Mass of water (kg)  =   1.000e+00
                 Total alkalinity (eq/kg)  =  -1.160e-16
                         Temperature (°C)  = 100.00
                  Electrical balance (eq)  =   1.160e-16
 Percent error, 100*(Cat-|An|)/(Cat+|An|)  =   0.00
                               Iterations  =   5
                                  Total H  = 1.110124e+02
                                  Total O  = 5.550622e+01

----------------------------Distribution of species----------------------------

                                               Log       Log       Log    mole V
   Species          Molality    Activity  Molality  Activity     Gamma   cm³/mol

   H+              7.610e-07   7.601e-07    -6.119    -6.119    -0.001      0.00
   OH-             7.610e-07   7.601e-07    -6.119    -6.119    -0.001     -5.96
   H2O             5.551e+01   1.000e+00     1.744    -0.000     0.000     18.80
H(0)          4.504e-24
   H2              2.252e-24   2.252e-24   -23.647   -23.647     0.000     28.57
O(0)          3.593e-26
   O2              1.796e-26   1.796e-26   -25.746   -25.746     0.000     33.90

------------------------------Saturation indices-------------------------------

  Phase               SI** log IAP   log K(373 K,   1 atm)

  H2(g)           -20.55    -23.65   -3.10  H2
  H2O(g)           -0.00     -0.00    0.00  H2O
  O2(g)           -22.63    -25.75   -3.11  O2

**For a gas, SI = log10(fugacity). Fugacity = pressure * phi / 1 atm.
  For ideal gases, phi = 1.

-----------------------------------------
Beginning of batch-reaction calculations.
-----------------------------------------

Reaction step 1.

Using solution 1.	
Using pure phase assemblage 1.	
Using gas phase 1.	
Using reaction 1.	

Reaction 1.	

	  0.000e+00 moles of the following reaction have been added:

	                 Relative
	Reactant            moles

	CO2                  1.00000

	                 Relative
	Element             moles
	C                    1.00000
	O                    2.00000

-----------------------------------Gas phase-----------------------------------

Total pressure:  1.00      atmospheres          (Peng-Robinson calculation)
    Gas volume:   1.00e+00 liters
  Molar volume:   3.04e+01 liters/mole
   P * Vm / RT:  0.99132  (Compressibility Factor Z) 

                                                        Moles in gas
                                            ----------------------------------
Component         log P           P    phi     Initial       Final       Delta

CO2(g)            -3.87   1.346e-04  1.001   0.000e+00   4.433e-06   4.433e-06
H2O(g)            -0.00   9.971e-01  0.991   0.000e+00   3.285e-02   3.285e-02

-------------------------------Phase assemblage--------------------------------

                                                      Moles in assemblage
Phase               SI  log IAP  log K(T, P)   Initial       Final       Delta

Calcite           0.00    -9.61     -9.61    1.000e+01   1.000e+01  -1.384e-04

-----------------------------Solution composition------------------------------

	Elements           Molality       Moles

	C                 1.340e-04   1.340e-04
	Ca                1.385e-04   1.384e-04

----------------------------Description of solution----------------------------

                                       pH  =   8.368      Charge balance
                                       pe  =   4.546      Adjusted to redox equilibrium
      Specific Conductance (µS/cm, 100°C)  = 119
                          Density (g/cm³)  =   0.95836
                               Volume (L)  =   1.04284
                        Viscosity (mPa s)  =   0.28183
                        Activity of water  =   1.000
                 Ionic strength (mol/kgw)  =   4.068e-04
                       Mass of water (kg)  =   9.994e-01
                 Total alkalinity (eq/kg)  =   2.769e-04
                       Total CO2 (mol/kg)  =   1.340e-04
                         Temperature (°C)  = 100.00
                           Pressure (atm)  =  1.00
                  Electrical balance (eq)  =   2.673e-14
 Percent error, 100*(Cat-|An|)/(Cat+|An|)  =   0.00
                               Iterations  =  23
                                  Total H  = 1.109467e+02
                                  Total O  = 5.547377e+01

----------------------------Distribution of species----------------------------

                                               Log       Log       Log    mole V
   Species          Molality    Activity  Molality  Activity     Gamma   cm³/mol

   OH-             1.385e-04   1.348e-04    -3.859    -3.870    -0.012     -5.92
   H+              4.401e-09   4.287e-09    -8.356    -8.368    -0.011      0.00
   H2O             5.551e+01   1.000e+00     1.744    -0.000     0.000     18.80
C(-4)         0.000e+00
   CH4             0.000e+00   0.000e+00   -93.663   -93.663     0.000     41.06
C(4)          1.340e-04
   HCO3-           1.268e-04   1.234e-04    -3.897    -3.909    -0.012     23.68
   CaCO3           3.602e-06   3.602e-06    -5.443    -5.443     0.000    -14.43
   CO3-2           2.242e-06   2.014e-06    -5.649    -5.696    -0.047     -8.91
   CO2             1.413e-06   1.413e-06    -5.850    -5.850     0.000     38.89
   (CO2)2          1.853e-13   1.853e-13   -12.732   -12.732     0.000     77.78
   CaHCO3+         0.000e+00   0.000e+00  -117.969  -117.981    -0.012     (0)  
Ca            1.385e-04
   Ca+2            1.349e-04   1.211e-04    -3.870    -3.917    -0.047    -19.87
   CaCO3           3.602e-06   3.602e-06    -5.443    -5.443     0.000    -14.43
   CaOH+           4.818e-09   4.689e-09    -8.317    -8.329    -0.012     (0)  
   CaHCO3+         0.000e+00   0.000e+00  -117.969  -117.981    -0.012     (0)  
H(0)          1.160e-29
   H2              5.799e-30   5.800e-30   -29.237   -29.237     0.000     28.57
O(0)          5.415e-15
   O2              2.708e-15   2.708e-15   -14.567   -14.567     0.000     33.90

------------------------------Saturation indices-------------------------------

  Phase               SI** log IAP   log K(373 K,   1 atm)

  Aragonite        -0.45     -9.61   -9.17  CaCO3
  Calcite           0.00     -9.61   -9.61  CaCO3
  CH4(g)          -90.66    -93.66   -3.00  CH4
  CO2(g)           -3.87     -5.85   -1.98  CO2	 Pressure   0.0 atm, phi 1.001
  H2(g)           -26.14    -29.24   -3.10  H2
  H2O(g)           -0.01     -0.00    0.00  H2O	 Pressure   1.0 atm, phi 0.991
  O2(g)           -11.45    -14.57   -3.11  O2

**For a gas, SI = log10(fugacity). Fugacity = pressure * phi / 1 atm.
  For ideal gases, phi = 1.

Reaction step 2.

Using solution 1.	
Using pure phase assemblage 1.	
Using gas phase 1.	
Using reaction 1.	

Reaction 1.	

	  5.000e-02 moles of the following reaction have been added:

	                 Relative
	Reactant            moles

	CO2                  1.00000

	                 Relative
	Element             moles
	C                    1.00000
	O                    2.00000

-----------------------------------Gas phase-----------------------------------

Total pressure:  2.11      atmospheres          (Peng-Robinson calculation)
    Gas volume:   1.00e+00 liters
  Molar volume:   1.43e+01 liters/mole
   P * Vm / RT:  0.99013  (Compressibility Factor Z) 

                                                        Moles in gas
                                            ----------------------------------
Component         log P           P    phi     Initial       Final       Delta

CO2(g)             0.04   1.108e+00  0.996   4.433e-06   3.656e-02   3.655e-02
H2O(g)             0.00   1.005e+00  0.984   3.285e-02   3.315e-02   3.054e-04

-------------------------------Phase assemblage--------------------------------

                                                      Moles in assemblage
Phase               SI  log IAP  log K(T, P)   Initial       Final       Delta

Calcite          -0.00    -9.61     -9.61    1.000e+01   9.998e+00  -1.733e-03

-----------------------------Solution composition------------------------------

	Elements           Molality       Moles

	C                 1.532e-02   1.531e-02
	Ca                1.873e-03   1.872e-03

----------------------------Description of solution----------------------------

                                       pH  =   5.896      Charge balance
                                       pe  =   6.939      Adjusted to redox equilibrium
      Specific Conductance (µS/cm, 100°C)  = 1071
                          Density (g/cm³)  =   0.95866
                               Volume (L)  =   1.04331
                        Viscosity (mPa s)  =   0.28756
                        Activity of water  =   1.000
                 Ionic strength (mol/kgw)  =   5.610e-03
                       Mass of water (kg)  =   9.994e-01
                 Total alkalinity (eq/kg)  =   3.746e-03
                       Total CO2 (mol/kg)  =   1.532e-02
                         Temperature (°C)  = 100.00
                           Pressure (atm)  =  2.11
                  Electrical balance (eq)  =   1.875e-11
 Percent error, 100*(Cat-|An|)/(Cat+|An|)  =   0.00
                               Iterations  =  22
                                  Total H  = 1.109461e+02
                                  Total O  = 5.550556e+01

----------------------------Distribution of species----------------------------

                                               Log       Log       Log    mole V
   Species          Molality    Activity  Molality  Activity     Gamma   cm³/mol

   H+              1.381e-06   1.270e-06    -5.860    -5.896    -0.037      0.00
   OH-             5.007e-07   4.553e-07    -6.300    -6.342    -0.041     -5.81
   H2O             5.551e+01   9.997e-01     1.744    -0.000     0.000     18.80
C(-4)         0.000e+00
   CH4             0.000e+00   0.000e+00   -89.125   -89.125     0.001     41.06
C(4)          1.532e-02
   CO2             1.156e-02   1.156e-02    -1.937    -1.937     0.000     38.89
   HCO3-           3.739e-03   3.414e-03    -2.427    -2.467    -0.039     23.80
   (CO2)2          1.240e-05   1.241e-05    -4.907    -4.906     0.001     77.78
   CaCO3           3.605e-06   3.609e-06    -5.443    -5.443     0.001    -14.43
   CO3-2           2.709e-07   1.883e-07    -6.567    -6.725    -0.158     -8.46
   CaHCO3+         0.000e+00   0.000e+00  -115.468  -115.509    -0.041     (0)  
Ca            1.873e-03
   Ca+2            1.869e-03   1.298e-03    -2.728    -2.887    -0.158    -19.49
   CaCO3           3.605e-06   3.609e-06    -5.443    -5.443     0.001    -14.43
   CaOH+           1.863e-10   1.696e-10    -9.730    -9.770    -0.041     (0)  
   CaHCO3+         0.000e+00   0.000e+00  -115.468  -115.509    -0.041     (0)  
H(0)          1.659e-29
   H2              8.295e-30   8.306e-30   -29.081   -29.081     0.001     28.57
O(0)          2.631e-15
   O2              1.315e-15   1.317e-15   -14.881   -14.880     0.001     33.90

------------------------------Saturation indices-------------------------------

  Phase               SI** log IAP   log K(373 K,   2 atm)

  Aragonite        -0.45     -9.61   -9.16  CaCO3
  Calcite          -0.00     -9.61   -9.61  CaCO3
  CH4(g)          -86.12    -89.12   -3.01  CH4
  CO2(g)            0.04     -1.94   -1.98  CO2	 Pressure   1.1 atm, phi 0.996
  H2(g)           -25.98    -29.08   -3.10  H2
  H2O(g)           -0.00     -0.00    0.00  H2O	 Pressure   1.0 atm, phi 0.984
  O2(g)           -11.77    -14.88   -3.12  O2

**For a gas, SI = log10(fugacity). Fugacity = pressure * phi / 1 atm.
  For ideal gases, phi = 1.

Reaction step 3.

Using solution 1.	
Using pure phase assemblage 1.	
Using gas phase 1.	
Using reaction 1.	

Reaction 1.	

	  5.000e-02 moles of the following reaction have been added:

	                 Relative
	Reactant            moles

	CO2                  1.00000

	                 Relative
	Element             moles
	C                    1.00000
	O                    2.00000

-----------------------------------Gas phase-----------------------------------

Total pressure:  3.26      atmospheres          (Peng-Robinson calculation)
    Gas volume:   1.00e+00 liters
  Molar volume:   9.29e+00 liters/mole
   P * Vm / RT:  0.98760  (Compressibility Factor Z) 

                                                        Moles in gas
                                            ----------------------------------
Component         log P           P    phi     Initial       Final       Delta

CO2(g)             0.35   2.245e+00  0.992   3.656e-02   7.423e-02   3.767e-02
H2O(g)             0.01   1.012e+00  0.977   3.315e-02   3.347e-02   3.189e-04

-------------------------------Phase assemblage--------------------------------

                                                      Moles in assemblage
Phase               SI  log IAP  log K(T, P)   Initial       Final       Delta

Calcite          -0.00    -9.61     -9.61    9.998e+00   9.998e+00  -5.440e-04

-----------------------------Solution composition------------------------------

	Elements           Molality       Moles

	C                 2.821e-02   2.819e-02
	Ca                2.417e-03   2.416e-03

----------------------------Description of solution----------------------------

                                       pH  =   5.698      Charge balance
                                       pe  =   7.196      Adjusted to redox equilibrium
      Specific Conductance (µS/cm, 100°C)  = 1364
                          Density (g/cm³)  =   0.95892
                               Volume (L)  =   1.04365
                        Viscosity (mPa s)  =   0.28990
                        Activity of water  =   0.999
                 Ionic strength (mol/kgw)  =   7.244e-03
                       Mass of water (kg)  =   9.994e-01
                 Total alkalinity (eq/kg)  =   4.835e-03
                       Total CO2 (mol/kg)  =   2.821e-02
                         Temperature (°C)  = 100.00
                           Pressure (atm)  =  3.26
                  Electrical balance (eq)  =   5.447e-11
 Percent error, 100*(Cat-|An|)/(Cat+|An|)  =   0.00
                               Iterations  =  21
                                  Total H  = 1.109455e+02
                                  Total O  = 5.553154e+01

----------------------------Distribution of species----------------------------

                                               Log       Log       Log    mole V
   Species          Molality    Activity  Molality  Activity     Gamma   cm³/mol

   H+              2.200e-06   2.004e-06    -5.658    -5.698    -0.040      0.00
   OH-             3.212e-07   2.886e-07    -6.493    -6.540    -0.046     -5.79
   H2O             5.551e+01   9.995e-01     1.744    -0.000     0.000     18.80
C(-4)         0.000e+00
   CH4             0.000e+00   0.000e+00   -89.287   -89.287     0.001     41.06
C(4)          2.821e-02
   CO2             2.328e-02   2.330e-02    -1.633    -1.633     0.000     38.89
   HCO3-           4.829e-03   4.363e-03    -2.316    -2.360    -0.044     23.83
   (CO2)2          5.031e-05   5.039e-05    -4.298    -4.298     0.001     77.77
   CaCO3           3.610e-06   3.616e-06    -5.442    -5.442     0.001    -14.42
   CO3-2           2.292e-07   1.526e-07    -6.640    -6.816    -0.176     -8.36
   CaHCO3+         0.000e+00   0.000e+00  -115.264  -115.310    -0.046     (0)  
Ca            2.417e-03
   Ca+2            2.414e-03   1.605e-03    -2.617    -2.794    -0.177    -19.41
   CaCO3           3.610e-06   3.616e-06    -5.442    -5.442     0.001    -14.42
   CaOH+           1.477e-10   1.329e-10    -9.831    -9.877    -0.046     (0)  
   CaHCO3+         0.000e+00   0.000e+00  -115.264  -115.310    -0.046     (0)  
H(0)          1.267e-29
   H2              6.335e-30   6.345e-30   -29.198   -29.198     0.001     28.57
O(0)          4.495e-15
   O2              2.247e-15   2.251e-15   -14.648   -14.648     0.001     33.89

------------------------------Saturation indices-------------------------------

  Phase               SI** log IAP   log K(373 K,   3 atm)

  Aragonite        -0.45     -9.61   -9.16  CaCO3
  Calcite          -0.00     -9.61   -9.61  CaCO3
  CH4(g)          -86.28    -89.29   -3.01  CH4
  CO2(g)            0.35     -1.63   -1.98  CO2	 Pressure   2.2 atm, phi 0.992
  H2(g)           -26.10    -29.20   -3.10  H2
  H2O(g)           -0.00     -0.00    0.00  H2O	 Pressure   1.0 atm, phi 0.977
  O2(g)           -11.53    -14.65   -3.12  O2

**For a gas, SI = log10(fugacity). Fugacity = pressure * phi / 1 atm.
  For ideal gases, phi = 1.

Reaction step 4.

Using solution 1.	
Using pure phase assemblage 1.	
Using gas phase 1.	
Using reaction 1.	

Reaction 1.	

	  5.000e-02 moles of the following reaction have been added:

	                 Relative
	Reactant            moles

	CO2                  1.00000

	                 Relative
	Element             moles
	C                    1.00000
	O                    2.00000

-----------------------------------Gas phase-----------------------------------

Total pressure:  4.40      atmospheres          (Peng-Robinson calculation)
    Gas volume:   1.00e+00 liters
  Molar volume:   6.85e+00 liters/mole
   P * Vm / RT:  0.98477  (Compressibility Factor Z) 

                                                        Moles in gas
                                            ----------------------------------
Component         log P           P    phi     Initial       Final       Delta

CO2(g)             0.53   3.381e+00  0.989   7.423e-02   1.121e-01   3.789e-02
H2O(g)             0.01   1.019e+00  0.971   3.347e-02   3.380e-02   3.231e-04

-------------------------------Phase assemblage--------------------------------

                                                      Moles in assemblage
Phase               SI  log IAP  log K(T, P)   Initial       Final       Delta

Calcite          -0.00    -9.61     -9.61    9.998e+00   9.997e+00  -3.877e-04

-----------------------------Solution composition------------------------------

	Elements           Molality       Moles

	C                 4.072e-02   4.069e-02
	Ca                2.805e-03   2.804e-03

----------------------------Description of solution----------------------------

                                       pH  =   5.584      Charge balance
                                       pe  =   7.235      Adjusted to redox equilibrium
      Specific Conductance (µS/cm, 100°C)  = 1569
                          Density (g/cm³)  =   0.95910
                               Volume (L)  =   1.04404
                        Viscosity (mPa s)  =   0.29155
                        Activity of water  =   0.999
                 Ionic strength (mol/kgw)  =   8.409e-03
                       Mass of water (kg)  =   9.993e-01
                 Total alkalinity (eq/kg)  =   5.611e-03
                       Total CO2 (mol/kg)  =   4.072e-02
                         Temperature (°C)  = 100.00
                           Pressure (atm)  =  4.40
                  Electrical balance (eq)  =   9.552e-11
 Percent error, 100*(Cat-|An|)/(Cat+|An|)  =   0.00
                               Iterations  =  21
                                  Total H  = 1.109448e+02
                                  Total O  = 5.555660e+01

----------------------------Distribution of species----------------------------

                                               Log       Log       Log    mole V
   Species          Molality    Activity  Molality  Activity     Gamma   cm³/mol

   H+              2.878e-06   2.608e-06    -5.541    -5.584    -0.043      0.00
   OH-             2.488e-07   2.220e-07    -6.604    -6.654    -0.050     -5.78
   H2O             5.551e+01   9.993e-01     1.744    -0.000     0.000     18.80
C(-4)         0.000e+00
   CH4             0.000e+00   0.000e+00   -88.511   -88.510     0.001     41.05
C(4)          4.072e-02
   CO2             3.488e-02   3.493e-02    -1.457    -1.457     0.001     38.88
   HCO3-           5.606e-03   5.030e-03    -2.251    -2.298    -0.047     23.85
   (CO2)2          1.130e-04   1.132e-04    -3.947    -3.946     0.001     77.76
   CaCO3           3.616e-06   3.623e-06    -5.442    -5.441     0.001    -14.41
   CO3-2           2.089e-07   1.354e-07    -6.680    -6.868    -0.188     -8.30
   CaHCO3+         0.000e+00   0.000e+00  -115.146  -115.195    -0.049     (0)  
Ca            2.805e-03
   Ca+2            2.802e-03   1.814e-03    -2.553    -2.741    -0.189    -19.36
   CaCO3           3.616e-06   3.623e-06    -5.442    -5.441     0.001    -14.41
   CaOH+           1.291e-10   1.154e-10    -9.889    -9.938    -0.049     (0)  
   CaHCO3+         0.000e+00   0.000e+00  -115.146  -115.195    -0.049     (0)  
H(0)          1.789e-29
   H2              8.944e-30   8.961e-30   -29.048   -29.048     0.001     28.57
O(0)          2.248e-15
   O2              1.124e-15   1.126e-15   -14.949   -14.948     0.001     33.89

------------------------------Saturation indices-------------------------------

  Phase               SI** log IAP   log K(373 K,   4 atm)

  Aragonite        -0.45     -9.61   -9.16  CaCO3
  Calcite          -0.00     -9.61   -9.61  CaCO3
  CH4(g)          -85.50    -88.51   -3.01  CH4
  CO2(g)            0.52     -1.46   -1.98  CO2	 Pressure   3.4 atm, phi 0.989
  H2(g)           -25.95    -29.05   -3.10  H2
  H2O(g)           -0.00     -0.00    0.00  H2O	 Pressure   1.0 atm, phi 0.971
  O2(g)           -11.83    -14.95   -3.12  O2

**For a gas, SI = log10(fugacity). Fugacity = pressure * phi / 1 atm.
  For ideal gases, phi = 1.

Reaction step 5.

Using solution 1.	
Using pure phase assemblage 1.	
Using gas phase 1.	
Using reaction 1.	

Reaction 1.	

	  5.000e-02 moles of the following reaction have been added:

	                 Relative
	Reactant            moles

	CO2                  1.00000

	                 Relative
	Element             moles
	C                    1.00000
	O                    2.00000

-----------------------------------Gas phase-----------------------------------

Total pressure:  5.54      atmospheres          (Peng-Robinson calculation)
    Gas volume:   1.00e+00 liters
  Molar volume:   5.43e+00 liters/mole
   P * Vm / RT:  0.98184  (Compressibility Factor Z) 

                                                        Moles in gas
                                            ----------------------------------
Component         log P           P    phi     Initial       Final       Delta

CO2(g)             0.65   4.515e+00  0.986   1.121e-01   1.502e-01   3.805e-02
H2O(g)             0.01   1.026e+00  0.965   3.380e-02   3.412e-02   3.267e-04

-------------------------------Phase assemblage--------------------------------

                                                      Moles in assemblage
Phase               SI  log IAP  log K(T, P)   Initial       Final       Delta

Calcite          -0.00    -9.61     -9.61    9.997e+00   9.997e+00  -3.116e-04

-----------------------------Solution composition------------------------------

	Elements           Molality       Moles

	C                 5.299e-02   5.295e-02
	Ca                3.117e-03   3.115e-03

----------------------------Description of solution----------------------------

                                       pH  =   5.503      Charge balance
                                       pe  =   0.212      Adjusted to redox equilibrium
      Specific Conductance (µS/cm, 100°C)  = 1731
                          Density (g/cm³)  =   0.95927
                               Volume (L)  =   1.04443
                        Viscosity (mPa s)  =   0.29287
                        Activity of water  =   0.999
                 Ionic strength (mol/kgw)  =   9.345e-03
                       Mass of water (kg)  =   9.993e-01
                 Total alkalinity (eq/kg)  =   6.235e-03
                       Total CO2 (mol/kg)  =   5.299e-02
                         Temperature (°C)  = 100.00
                           Pressure (atm)  =  5.54
                  Electrical balance (eq)  =   1.460e-10
 Percent error, 100*(Cat-|An|)/(Cat+|An|)  =   0.00
                               Iterations  =  18
                                  Total H  = 1.109442e+02
                                  Total O  = 5.558112e+01

----------------------------Distribution of species----------------------------

                                               Log       Log       Log    mole V
   Species          Molality    Activity  Molality  Activity     Gamma   cm³/mol

   H+              3.477e-06   3.137e-06    -5.459    -5.503    -0.045      0.00
   OH-             2.081e-07   1.846e-07    -6.682    -6.734    -0.052     -5.77
   H2O             5.551e+01   9.990e-01     1.744    -0.000     0.000     18.79
C(-4)         2.713e-32
   CH4             2.713e-32   2.719e-32   -31.567   -31.566     0.001     41.05
C(4)          5.299e-02
   CO2             4.636e-02   4.642e-02    -1.334    -1.333     0.001     38.88
   HCO3-           6.230e-03   5.563e-03    -2.206    -2.255    -0.049     23.86
   (CO2)2          1.996e-04   2.000e-04    -3.700    -3.699     0.001     77.76
   CaCO3           3.622e-06   3.630e-06    -5.441    -5.440     0.001    -14.41
   CO3-2           1.960e-07   1.246e-07    -6.708    -6.904    -0.197     -8.25
   CaHCO3+         0.000e+00   0.000e+00  -115.063  -115.114    -0.051     (0)  
Ca            3.117e-03
   Ca+2            3.114e-03   1.976e-03    -2.507    -2.704    -0.197    -19.33
   CaCO3           3.622e-06   3.630e-06    -5.441    -5.440     0.001    -14.41
   CaOH+           1.175e-10   1.044e-10    -9.930    -9.981    -0.051     (0)  
   CaHCO3+         0.000e+00   0.000e+00  -115.063  -115.114    -0.051     (0)  
H(0)          2.866e-15
   H2              1.433e-15   1.436e-15   -14.844   -14.843     0.001     28.57
O(0)          0.000e+00
   O2              0.000e+00   0.000e+00   -43.360   -43.359     0.001     33.88

------------------------------Saturation indices-------------------------------

  Phase               SI** log IAP   log K(373 K,   6 atm)

  Aragonite        -0.45     -9.61   -9.16  CaCO3
  Calcite          -0.00     -9.61   -9.61  CaCO3
  CH4(g)          -28.56    -31.57   -3.01  CH4
  CO2(g)            0.65     -1.33   -1.98  CO2	 Pressure   4.5 atm, phi 0.986
  H2(g)           -11.74    -14.84   -3.10  H2
  H2O(g)           -0.00     -0.00    0.00  H2O	 Pressure   1.0 atm, phi 0.965
  O2(g)           -40.24    -43.36   -3.12  O2

**For a gas, SI = log10(fugacity). Fugacity = pressure * phi / 1 atm.
  For ideal gases, phi = 1.

Reaction step 6.

Using solution 1.	
Using pure phase assemblage 1.	
Using gas phase 1.	
Using reaction 1.	

Reaction 1.	

	  1.000e-01 moles of the following reaction have been added:

	                 Relative
	Reactant            moles

	CO2                  1.00000

	                 Relative
	Element             moles
	C                    1.00000
	O                    2.00000

-----------------------------------Gas phase-----------------------------------

Total pressure:  7.81      atmospheres          (Peng-Robinson calculation)
    Gas volume:   1.00e+00 liters
  Molar volume:   3.82e+00 liters/mole
   P * Vm / RT:  0.97584  (Compressibility Factor Z) 

                                                        Moles in gas
                                            ----------------------------------
Component         log P           P    phi     Initial       Final       Delta

CO2(g)             0.83   6.773e+00  0.980   1.502e-01   2.267e-01   7.650e-02
H2O(g)             0.02   1.039e+00  0.954   3.412e-02   3.479e-02   6.634e-04

-------------------------------Phase assemblage--------------------------------

                                                      Moles in assemblage
Phase               SI  log IAP  log K(T, P)   Initial       Final       Delta

Calcite          -0.00    -9.61     -9.61    9.997e+00   9.996e+00  -4.970e-04

-----------------------------Solution composition------------------------------

	Elements           Molality       Moles

	C                 7.700e-02   7.695e-02
	Ca                3.615e-03   3.612e-03

----------------------------Description of solution----------------------------

                                       pH  =   5.392      Charge balance
                                       pe  =   0.553      Adjusted to redox equilibrium
      Specific Conductance (µS/cm, 100°C)  = 1985
                          Density (g/cm³)  =   0.95959
                               Volume (L)  =   1.04520
                        Viscosity (mPa s)  =   0.29500
                        Activity of water  =   0.999
                 Ionic strength (mol/kgw)  =   1.084e-02
                       Mass of water (kg)  =   9.993e-01
                 Total alkalinity (eq/kg)  =   7.229e-03
                       Total CO2 (mol/kg)  =   7.700e-02
                         Temperature (°C)  = 100.00
                           Pressure (atm)  =  7.81
                  Electrical balance (eq)  =   1.752e-10
 Percent error, 100*(Cat-|An|)/(Cat+|An|)  =   0.00
                               Iterations  =  23
                                  Total H  = 1.109429e+02
                                  Total O  = 5.562895e+01

----------------------------Distribution of species----------------------------

                                               Log       Log       Log    mole V
   Species          Molality    Activity  Molality  Activity     Gamma   cm³/mol

   H+              4.526e-06   4.059e-06    -5.344    -5.392    -0.047      0.00
   OH-             1.624e-07   1.429e-07    -6.789    -6.845    -0.056     -5.77
   H2O             5.551e+01   9.986e-01     1.744    -0.001     0.000     18.79
C(-4)         6.003e-34
   CH4             6.003e-34   6.018e-34   -33.222   -33.221     0.001     41.05
C(4)          7.700e-02
   CO2             6.889e-02   6.901e-02    -1.162    -1.161     0.001     38.87
   HCO3-           7.226e-03   6.405e-03    -2.141    -2.193    -0.052     23.89
   (CO2)2          4.409e-04   4.420e-04    -3.356    -3.355     0.001     77.74
   CaCO3           3.635e-06   3.644e-06    -5.440    -5.438     0.001    -14.39
   CO3-2           1.801e-07   1.112e-07    -6.745    -6.954    -0.209     -8.16
   CaHCO3+         0.000e+00   0.000e+00  -114.946  -115.001    -0.055     (0)  
Ca            3.615e-03
   Ca+2            3.611e-03   2.225e-03    -2.442    -2.653    -0.210    -19.26
   CaCO3           3.635e-06   3.644e-06    -5.440    -5.438     0.001    -14.39
   CaOH+           1.030e-10   9.086e-11    -9.987   -10.042    -0.055     (0)  
   CaHCO3+         0.000e+00   0.000e+00  -114.946  -115.001    -0.055     (0)  
H(0)          9.993e-16
   H2              4.996e-16   5.009e-16   -15.301   -15.300     0.001     28.57
O(0)          0.000e+00
   O2              0.000e+00   0.000e+00   -42.447   -42.446     0.001     33.88

------------------------------Saturation indices-------------------------------

  Phase               SI** log IAP   log K(373 K,   8 atm)

  Aragonite        -0.45     -9.61   -9.16  CaCO3
  Calcite          -0.00     -9.61   -9.61  CaCO3
  CH4(g)          -30.21    -33.22   -3.01  CH4
  CO2(g)            0.82     -1.16   -1.98  CO2	 Pressure   6.8 atm, phi 0.980
  H2(g)           -12.20    -15.30   -3.10  H2
  H2O(g)           -0.00     -0.00    0.00  H2O	 Pressure   1.0 atm, phi 0.954
  O2(g)           -39.33    -42.45   -3.12  O2

**For a gas, SI = log10(fugacity). Fugacity = pressure * phi / 1 atm.
  For ideal gases, phi = 1.

Reaction step 7.

Using solution 1.	
Using pure phase assemblage 1.	
Using gas phase 1.	
Using reaction 1.	

Reaction 1.	

	  1.000e-01 moles of the following reaction have been added:

	                 Relative
	Reactant            moles

	CO2                  1.00000

	                 Relative
	Element             moles
	C                    1.00000
	O                    2.00000

-----------------------------------Gas phase-----------------------------------

Total pressure: 10.07      atmospheres          (Peng-Robinson calculation)
    Gas volume:   1.00e+00 liters
  Molar volume:   2.95e+00 liters/mole
   P * Vm / RT:  0.96979  (Compressibility Factor Z) 

                                                        Moles in gas
                                            ----------------------------------
Component         log P           P    phi     Initial       Final       Delta

CO2(g)             0.96   9.017e+00  0.974   2.267e-01   3.036e-01   7.698e-02
H2O(g)             0.02   1.053e+00  0.942   3.479e-02   3.546e-02   6.763e-04

-------------------------------Phase assemblage--------------------------------

                                                      Moles in assemblage
Phase               SI  log IAP  log K(T, P)   Initial       Final       Delta

Calcite          -0.00    -9.60     -9.60    9.996e+00   9.996e+00  -3.977e-04

-----------------------------Solution composition------------------------------

	Elements           Molality       Moles

	C                 1.004e-01   1.004e-01
	Ca                4.013e-03   4.010e-03

----------------------------Description of solution----------------------------

                                       pH  =   5.313      Charge balance
                                       pe  =   7.545      Adjusted to redox equilibrium
      Specific Conductance (µS/cm, 100°C)  = 2185
                          Density (g/cm³)  =   0.95990
                               Volume (L)  =   1.04595
                        Viscosity (mPa s)  =   0.29672
                        Activity of water  =   0.998
                 Ionic strength (mol/kgw)  =   1.203e-02
                       Mass of water (kg)  =   9.993e-01
                 Total alkalinity (eq/kg)  =   8.025e-03
                       Total CO2 (mol/kg)  =   1.004e-01
                         Temperature (°C)  = 100.00
                           Pressure (atm)  = 10.07
                  Electrical balance (eq)  =   2.136e-10
 Percent error, 100*(Cat-|An|)/(Cat+|An|)  =   0.00
                               Iterations  =  22
                                  Total H  = 1.109415e+02
                                  Total O  = 5.567550e+01

----------------------------Distribution of species----------------------------

                                               Log       Log       Log    mole V
   Species          Molality    Activity  Molality  Activity     Gamma   cm³/mol

   H+              5.442e-06   4.859e-06    -5.264    -5.313    -0.049      0.00
   OH-             1.367e-07   1.195e-07    -6.864    -6.922    -0.058     -5.77
   H2O             5.551e+01   9.982e-01     1.744    -0.001     0.000     18.79
C(-4)         0.000e+00
   CH4             0.000e+00   0.000e+00   -88.419   -88.417     0.001     41.05
C(4)          1.004e-01
   CO2             9.088e-02   9.104e-02    -1.042    -1.041     0.001     38.86
   HCO3-           8.023e-03   7.074e-03    -2.096    -2.150    -0.055     23.92
   (CO2)2          7.672e-04   7.693e-04    -3.115    -3.114     0.001     77.73
   CaCO3           3.647e-06   3.658e-06    -5.438    -5.437     0.001    -14.38
   CO3-2           1.701e-07   1.028e-07    -6.769    -6.988    -0.219     -8.09
   CaHCO3+         0.000e+00   0.000e+00  -114.864  -114.922    -0.057     (0)  
Ca            4.013e-03
   Ca+2            4.009e-03   2.418e-03    -2.397    -2.617    -0.220    -19.21
   CaCO3           3.647e-06   3.658e-06    -5.438    -5.437     0.001    -14.38
   CaOH+           9.402e-11   8.243e-11   -10.027   -10.084    -0.057     (0)  
   CaHCO3+         0.000e+00   0.000e+00  -114.864  -114.922    -0.057     (0)  
H(0)          1.478e-29
   H2              7.388e-30   7.409e-30   -29.131   -29.130     0.001     28.56
O(0)          3.246e-15
   O2              1.623e-15   1.628e-15   -14.790   -14.788     0.001     33.87

------------------------------Saturation indices-------------------------------

  Phase               SI** log IAP   log K(373 K,  10 atm)

  Aragonite        -0.45     -9.60   -9.16  CaCO3
  Calcite          -0.00     -9.60   -9.60  CaCO3
  CH4(g)          -85.41    -88.42   -3.01  CH4
  CO2(g)            0.94     -1.04   -1.98  CO2	 Pressure   9.0 atm, phi 0.974
  H2(g)           -26.03    -29.13   -3.10  H2
  H2O(g)           -0.00     -0.00    0.00  H2O	 Pressure   1.1 atm, phi 0.942
  O2(g)           -11.67    -14.79   -3.12  O2

**For a gas, SI = log10(fugacity). Fugacity = pressure * phi / 1 atm.
  For ideal gases, phi = 1.

Reaction step 8.

Using solution 1.	
Using pure phase assemblage 1.	
Using gas phase 1.	
Using reaction 1.	

Reaction 1.	

	  1.000e-01 moles of the following reaction have been added:

	                 Relative
	Reactant            moles

	CO2                  1.00000

	                 Relative
	Element             moles
	C                    1.00000
	O                    2.00000

-----------------------------------Gas phase-----------------------------------

Total pressure: 12.31      atmospheres          (Peng-Robinson calculation)
    Gas volume:   1.00e+00 liters
  Molar volume:   2.40e+00 liters/mole
   P * Vm / RT:  0.96375  (Compressibility Factor Z) 

                                                        Moles in gas
                                            ----------------------------------
Component         log P           P    phi     Initial       Final       Delta

CO2(g)             1.05   1.125e+01  0.968   3.036e-01   3.811e-01   7.743e-02
H2O(g)             0.03   1.067e+00  0.931   3.546e-02   3.615e-02   6.892e-04

-------------------------------Phase assemblage--------------------------------

                                                      Moles in assemblage
Phase               SI  log IAP  log K(T, P)   Initial       Final       Delta

Calcite          -0.00    -9.60     -9.60    9.996e+00   9.996e+00  -3.363e-04

-----------------------------Solution composition------------------------------

	Elements           Molality       Moles

	C                 1.234e-01   1.233e-01
	Ca                4.349e-03   4.346e-03

----------------------------Description of solution----------------------------

                                       pH  =   5.254      Charge balance
                                       pe  =   7.416      Adjusted to redox equilibrium
      Specific Conductance (µS/cm, 100°C)  = 2351
                          Density (g/cm³)  =   0.96019
                               Volume (L)  =   1.04668
                        Viscosity (mPa s)  =   0.29818
                        Activity of water  =   0.998
                 Ionic strength (mol/kgw)  =   1.304e-02
                       Mass of water (kg)  =   9.993e-01
                 Total alkalinity (eq/kg)  =   8.699e-03
                       Total CO2 (mol/kg)  =   1.234e-01
                         Temperature (°C)  = 100.00
                           Pressure (atm)  = 12.31
                  Electrical balance (eq)  =   2.450e-10
 Percent error, 100*(Cat-|An|)/(Cat+|An|)  =   0.00
                               Iterations  =  23
                                  Total H  = 1.109401e+02
                                  Total O  = 5.572095e+01

----------------------------Distribution of species----------------------------

                                               Log       Log       Log    mole V
   Species          Molality    Activity  Molality  Activity     Gamma   cm³/mol

   H+              6.266e-06   5.576e-06    -5.203    -5.254    -0.051      0.00
   OH-             1.198e-07   1.043e-07    -6.921    -6.982    -0.060     -5.77
   H2O             5.551e+01   9.978e-01     1.744    -0.001     0.000     18.79
C(-4)         0.000e+00
   CH4             0.000e+00   0.000e+00   -86.813   -86.812     0.001     41.05
C(4)          1.234e-01
   CO2             1.123e-01   1.125e-01    -0.950    -0.949     0.001     38.86
   HCO3-           8.697e-03   7.635e-03    -2.061    -2.117    -0.057     23.94
   (CO2)2          1.172e-03   1.175e-03    -2.931    -2.930     0.001     77.72
   CaCO3           3.660e-06   3.671e-06    -5.436    -5.435     0.001    -14.36
   CO3-2           1.631e-07   9.692e-08    -6.787    -7.014    -0.226     -8.02
   CaHCO3+         0.000e+00   0.000e+00  -114.801  -114.861    -0.059     (0)  
Ca            4.349e-03
   Ca+2            4.346e-03   2.577e-03    -2.362    -2.589    -0.227    -19.17
   CaCO3           3.660e-06   3.671e-06    -5.436    -5.435     0.001    -14.36
   CaOH+           8.767e-11   7.652e-11   -10.057   -10.116    -0.059     (0)  
   CaHCO3+         0.000e+00   0.000e+00  -114.801  -114.861    -0.059     (0)  
H(0)          3.525e-29
   H2              1.762e-29   1.768e-29   -28.754   -28.753     0.001     28.56
O(0)          5.675e-16
   O2              2.837e-16   2.846e-16   -15.547   -15.546     0.001     33.86

------------------------------Saturation indices-------------------------------

  Phase               SI** log IAP   log K(373 K,  12 atm)

  Aragonite        -0.45     -9.60   -9.16  CaCO3
  Calcite          -0.00     -9.60   -9.60  CaCO3
  CH4(g)          -83.80    -86.81   -3.01  CH4
  CO2(g)            1.04     -0.95   -1.99  CO2	 Pressure  11.2 atm, phi 0.968
  H2(g)           -25.65    -28.75   -3.11  H2
  H2O(g)           -0.00     -0.00    0.00  H2O	 Pressure   1.1 atm, phi 0.931
  O2(g)           -12.43    -15.55   -3.12  O2

**For a gas, SI = log10(fugacity). Fugacity = pressure * phi / 1 atm.
  For ideal gases, phi = 1.

Reaction step 9.

Using solution 1.	
Using pure phase assemblage 1.	
Using gas phase 1.	
Using reaction 1.	

Reaction 1.	

	  1.000e-01 moles of the following reaction have been added:

	                 Relative
	Reactant            moles

	CO2                  1.00000

	                 Relative
	Element             moles
	C                    1.00000
	O                    2.00000

-----------------------------------Gas phase-----------------------------------

Total pressure: 14.54      atmospheres          (Peng-Robinson calculation)
    Gas volume:   1.00e+00 liters
  Molar volume:   2.02e+00 liters/mole
   P * Vm / RT:  0.95773  (Compressibility Factor Z) 

                                                        Moles in gas
                                            ----------------------------------
Component         log P           P    phi     Initial       Final       Delta

CO2(g)             1.13   1.346e+01  0.962   3.811e-01   4.589e-01   7.787e-02
H2O(g)             0.03   1.081e+00  0.920   3.615e-02   3.685e-02   7.020e-04

-------------------------------Phase assemblage--------------------------------

                                                      Moles in assemblage
Phase               SI  log IAP  log K(T, P)   Initial       Final       Delta

Calcite           0.00    -9.60     -9.60    9.996e+00   9.995e+00  -2.936e-04

-----------------------------Solution composition------------------------------

	Elements           Molality       Moles

	C                 1.458e-01   1.457e-01
	Ca                4.643e-03   4.640e-03

----------------------------Description of solution----------------------------

                                       pH  =   5.206      Charge balance
                                       pe  =   0.420      Adjusted to redox equilibrium
      Specific Conductance (µS/cm, 100°C)  = 2494
                          Density (g/cm³)  =   0.96048
                               Volume (L)  =   1.04741
                        Viscosity (mPa s)  =   0.29946
                        Activity of water  =   0.997
                 Ionic strength (mol/kgw)  =   1.393e-02
                       Mass of water (kg)  =   9.993e-01
                 Total alkalinity (eq/kg)  =   9.287e-03
                       Total CO2 (mol/kg)  =   1.458e-01
                         Temperature (°C)  = 100.00
                           Pressure (atm)  = 14.54
                  Electrical balance (eq)  =   2.252e-10
 Percent error, 100*(Cat-|An|)/(Cat+|An|)  =   0.00
                               Iterations  =  27
                                  Total H  = 1.109387e+02
                                  Total O  = 5.576539e+01

----------------------------Distribution of species----------------------------

                                               Log       Log       Log    mole V
   Species          Molality    Activity  Molality  Activity     Gamma   cm³/mol

   H+              7.021e-06   6.230e-06    -5.154    -5.206    -0.052      0.00
   OH-             1.078e-07   9.350e-08    -6.967    -7.029    -0.062     -5.77
   H2O             5.551e+01   9.975e-01     1.744    -0.001     0.000     18.79
C(-4)         4.098e-31
   CH4             4.098e-31   4.111e-31   -30.387   -30.386     0.001     41.04
C(4)          1.458e-01
   CO2             1.332e-01   1.335e-01    -0.875    -0.875     0.001     38.85
   HCO3-           9.286e-03   8.123e-03    -2.032    -2.090    -0.058     23.96
   (CO2)2          1.649e-03   1.654e-03    -2.783    -2.781     0.001     77.70
   CaCO3           3.673e-06   3.685e-06    -5.435    -5.434     0.001    -14.35
   CO3-2           1.579e-07   9.250e-08    -6.802    -7.034    -0.232     -7.97
   CaHCO3+         0.000e+00   0.000e+00  -114.750  -114.811    -0.061     (0)  
Ca            4.643e-03
   Ca+2            4.640e-03   2.712e-03    -2.334    -2.567    -0.233    -19.13
   CaCO3           3.673e-06   3.685e-06    -5.435    -5.434     0.001    -14.35
   CaOH+           8.288e-11   7.206e-11   -10.082   -10.142    -0.061     (0)  
   CaHCO3+         0.000e+00   0.000e+00  -114.750  -114.811    -0.061     (0)  
H(0)          4.309e-15
   H2              2.154e-15   2.161e-15   -14.667   -14.665     0.001     28.56
O(0)          0.000e+00
   O2              0.000e+00   0.000e+00   -43.724   -43.722     0.001     33.85

------------------------------Saturation indices-------------------------------

  Phase               SI** log IAP   log K(373 K,  15 atm)

  Aragonite        -0.45     -9.60   -9.15  CaCO3
  Calcite           0.00     -9.60   -9.60  CaCO3
  CH4(g)          -27.37    -30.39   -3.01  CH4
  CO2(g)            1.11     -0.87   -1.99  CO2	 Pressure  13.5 atm, phi 0.962
  H2(g)           -11.56    -14.67   -3.11  H2
  H2O(g)           -0.00     -0.00    0.00  H2O	 Pressure   1.1 atm, phi 0.920
  O2(g)           -40.60    -43.72   -3.12  O2

**For a gas, SI = log10(fugacity). Fugacity = pressure * phi / 1 atm.
  For ideal gases, phi = 1.

Reaction step 10.

Using solution 1.	
Using pure phase assemblage 1.	
Using gas phase 1.	
Using reaction 1.	

Reaction 1.	

	  1.000e-01 moles of the following reaction have been added:

	                 Relative
	Reactant            moles

	CO2                  1.00000

	                 Relative
	Element             moles
	C                    1.00000
	O                    2.00000

-----------------------------------Gas phase-----------------------------------

Total pressure: 16.75      atmospheres          (Peng-Robinson calculation)
    Gas volume:   1.00e+00 liters
  Molar volume:   1.74e+00 liters/mole
   P * Vm / RT:  0.95173  (Compressibility Factor Z) 

                                                        Moles in gas
                                            ----------------------------------
Component         log P           P    phi     Initial       Final       Delta

CO2(g)             1.19   1.566e+01  0.956   4.589e-01   5.372e-01   7.829e-02
H2O(g)             0.04   1.095e+00  0.909   3.685e-02   3.757e-02   7.149e-04

-------------------------------Phase assemblage--------------------------------

                                                      Moles in assemblage
Phase               SI  log IAP  log K(T, P)   Initial       Final       Delta

Calcite           0.00    -9.60     -9.60    9.995e+00   9.995e+00  -2.619e-04

-----------------------------Solution composition------------------------------

	Elements           Molality       Moles

	C                 1.678e-01   1.677e-01
	Ca                4.905e-03   4.902e-03

----------------------------Description of solution----------------------------

                                       pH  =   5.165      Charge balance
                                       pe  =   7.677      Adjusted to redox equilibrium
      Specific Conductance (µS/cm, 100°C)  = 2620
                          Density (g/cm³)  =   0.96075
                               Volume (L)  =   1.04811
                        Viscosity (mPa s)  =   0.30061
                        Activity of water  =   0.997
                 Ionic strength (mol/kgw)  =   1.471e-02
                       Mass of water (kg)  =   9.992e-01
                 Total alkalinity (eq/kg)  =   9.811e-03
                       Total CO2 (mol/kg)  =   1.678e-01
                         Temperature (°C)  = 100.00
                           Pressure (atm)  = 16.75
                  Electrical balance (eq)  =   1.988e-10
 Percent error, 100*(Cat-|An|)/(Cat+|An|)  =   0.00
                               Iterations  =  24
                                  Total H  = 1.109373e+02
                                  Total O  = 5.580888e+01

----------------------------Distribution of species----------------------------

                                               Log       Log       Log    mole V
   Species          Molality    Activity  Molality  Activity     Gamma   cm³/mol

   H+              7.720e-06   6.834e-06    -5.112    -5.165    -0.053      0.00
   OH-             9.879e-08   8.536e-08    -7.005    -7.069    -0.063     -5.77
   H2O             5.551e+01   9.971e-01     1.744    -0.001     0.000     18.78
C(-4)         0.000e+00
   CH4             0.000e+00   0.000e+00   -88.059   -88.057     0.001     41.04
C(4)          1.678e-01
   CO2             1.536e-01   1.539e-01    -0.814    -0.813     0.001     38.85
   HCO3-           9.811e-03   8.557e-03    -2.008    -2.068    -0.059     23.98
   (CO2)2          2.192e-03   2.199e-03    -2.659    -2.658     0.001     77.69
   CaCO3           3.686e-06   3.699e-06    -5.433    -5.432     0.001    -14.34
   CO3-2           1.539e-07   8.903e-08    -6.813    -7.050    -0.238     -7.91
   CaHCO3+         0.000e+00   0.000e+00  -114.708  -114.770    -0.062     (0)  
Ca            4.905e-03
   Ca+2            4.902e-03   2.831e-03    -2.310    -2.548    -0.238    -19.10
   CaCO3           3.686e-06   3.699e-06    -5.433    -5.432     0.001    -14.34
   CaOH+           7.909e-11   6.854e-11   -10.102   -10.164    -0.062     (0)  
   CaHCO3+         0.000e+00   0.000e+00  -114.708  -114.770    -0.062     (0)  
H(0)          1.586e-29
   H2              7.931e-30   7.958e-30   -29.101   -29.099     0.001     28.56
O(0)          2.773e-15
   O2              1.387e-15   1.391e-15   -14.858   -14.857     0.001     33.85

------------------------------Saturation indices-------------------------------

  Phase               SI** log IAP   log K(373 K,  17 atm)

  Aragonite        -0.45     -9.60   -9.15  CaCO3
  Calcite           0.00     -9.60   -9.60  CaCO3
  CH4(g)          -85.04    -88.06   -3.01  CH4
  CO2(g)            1.18     -0.81   -1.99  CO2	 Pressure  15.7 atm, phi 0.956
  H2(g)           -25.99    -29.10   -3.11  H2
  H2O(g)           -0.00     -0.00    0.00  H2O	 Pressure   1.1 atm, phi 0.909
  O2(g)           -11.73    -14.86   -3.12  O2

**For a gas, SI = log10(fugacity). Fugacity = pressure * phi / 1 atm.
  For ideal gases, phi = 1.

Reaction step 11.

Using solution 1.	
Using pure phase assemblage 1.	
Using gas phase 1.	
Using reaction 1.	

Reaction 1.	

	  3.000e-01 moles of the following reaction have been added:

	                 Relative
	Reactant            moles

	CO2                  1.00000

	                 Relative
	Element             moles
	C                    1.00000
	O                    2.00000

-----------------------------------Gas phase-----------------------------------

Total pressure: 23.29      atmospheres          (Peng-Robinson calculation)
    Gas volume:   1.00e+00 liters
  Molar volume:   1.23e+00 liters/mole
   P * Vm / RT:  0.93396  (Compressibility Factor Z) 

                                                        Moles in gas
                                            ----------------------------------
Component         log P           P    phi     Initial       Final       Delta

CO2(g)             1.35   2.215e+01  0.939   5.372e-01   7.746e-01   2.374e-01
H2O(g)             0.06   1.138e+00  0.877   3.757e-02   3.979e-02   2.223e-03

-------------------------------Phase assemblage--------------------------------

                                                      Moles in assemblage
Phase               SI  log IAP  log K(T, P)   Initial       Final       Delta

Calcite          -0.00    -9.59     -9.59    9.995e+00   9.994e+00  -6.543e-04

-----------------------------Solution composition------------------------------

	Elements           Molality       Moles

	C                 2.311e-01   2.310e-01
	Ca                5.561e-03   5.556e-03

----------------------------Description of solution----------------------------

                                       pH  =   5.075      Charge balance
                                       pe  =   7.878      Adjusted to redox equilibrium
      Specific Conductance (µS/cm, 100°C)  = 2927
                          Density (g/cm³)  =   0.96155
                               Volume (L)  =   1.05014
                        Viscosity (mPa s)  =   0.30353
                        Activity of water  =   0.996
                 Ionic strength (mol/kgw)  =   1.668e-02
                       Mass of water (kg)  =   9.992e-01
                 Total alkalinity (eq/kg)  =   1.112e-02
                       Total CO2 (mol/kg)  =   2.311e-01
                         Temperature (°C)  = 100.00
                           Pressure (atm)  = 23.29
                  Electrical balance (eq)  =   2.145e-10
 Percent error, 100*(Cat-|An|)/(Cat+|An|)  =   0.00
                               Iterations  =  26
                                  Total H  = 1.109328e+02
                                  Total O  = 5.593389e+01

----------------------------Distribution of species----------------------------

                                               Log       Log       Log    mole V
   Species          Molality    Activity  Molality  Activity     Gamma   cm³/mol

   H+              9.565e-06   8.420e-06    -5.019    -5.075    -0.055      0.00
   OH-             8.117e-08   6.957e-08    -7.091    -7.158    -0.067     -5.78
   H2O             5.551e+01   9.960e-01     1.744    -0.002     0.000     18.78
C(-4)         0.000e+00
   CH4             0.000e+00   0.000e+00   -88.810   -88.809     0.002     41.03
C(4)          2.311e-01
   CO2             2.117e-01   2.122e-01    -0.674    -0.673     0.001     38.83
   HCO3-           1.112e-02   9.633e-03    -1.954    -2.016    -0.062     24.04
   (CO2)2          4.164e-03   4.180e-03    -2.380    -2.379     0.002     77.65
   CaCO3           3.725e-06   3.739e-06    -5.429    -5.427     0.002    -14.30
   CO3-2           1.456e-07   8.189e-08    -6.837    -7.087    -0.250     -7.77
   CaHCO3+         0.000e+00   0.000e+00  -114.610  -114.676    -0.066     (0)  
Ca            5.561e-03
   Ca+2            5.557e-03   3.119e-03    -2.255    -2.506    -0.251    -19.01
   CaCO3           3.725e-06   3.739e-06    -5.429    -5.427     0.002    -14.30
   CaOH+           7.120e-11   6.123e-11   -10.148   -10.213    -0.066     (0)  
   CaHCO3+         0.000e+00   0.000e+00  -114.610  -114.676    -0.066     (0)  
H(0)          9.451e-30
   H2              4.725e-30   4.743e-30   -29.326   -29.324     0.002     28.56
O(0)          7.697e-15
   O2              3.848e-15   3.863e-15   -14.415   -14.413     0.002     33.82

------------------------------Saturation indices-------------------------------

  Phase               SI** log IAP   log K(373 K,  23 atm)

  Aragonite        -0.45     -9.59   -9.15  CaCO3
  Calcite          -0.00     -9.59   -9.59  CaCO3
  CH4(g)          -85.79    -88.81   -3.02  CH4
  CO2(g)            1.32     -0.67   -1.99  CO2	 Pressure  22.2 atm, phi 0.939
  H2(g)           -26.21    -29.32   -3.11  H2
  H2O(g)           -0.00     -0.00   -0.00  H2O	 Pressure   1.1 atm, phi 0.877
  O2(g)           -11.29    -14.41   -3.13  O2

**For a gas, SI = log10(fugacity). Fugacity = pressure * phi / 1 atm.
  For ideal gases, phi = 1.

Reaction step 12.

Using solution 1.	
Using pure phase assemblage 1.	
Using gas phase 1.	
Using reaction 1.	

Reaction 1.	

	  3.000e-01 moles of the following reaction have been added:

	                 Relative
	Reactant            moles

	CO2                  1.00000

	                 Relative
	Element             moles
	C                    1.00000
	O                    2.00000

-----------------------------------Gas phase-----------------------------------

Total pressure: 29.68      atmospheres          (Peng-Robinson calculation)
    Gas volume:   1.00e+00 liters
  Molar volume:   9.45e-01 liters/mole
   P * Vm / RT:  0.91654  (Compressibility Factor Z) 

                                                        Moles in gas
                                            ----------------------------------
Component         log P           P    phi     Initial       Final       Delta

CO2(g)             1.45   2.850e+01  0.923   7.746e-01   1.016e+00   2.410e-01
H2O(g)             0.07   1.183e+00  0.847   3.979e-02   4.214e-02   2.344e-03

-------------------------------Phase assemblage--------------------------------

                                                      Moles in assemblage
Phase               SI  log IAP  log K(T, P)   Initial       Final       Delta

Calcite          -0.00    -9.59     -9.59    9.994e+00   9.994e+00  -5.238e-04

-----------------------------Solution composition------------------------------

	Elements           Molality       Moles

	C                 2.908e-01   2.905e-01
	Ca                6.085e-03   6.080e-03

----------------------------Description of solution----------------------------

                                       pH  =   5.011      Charge balance
                                       pe  =   7.972      Adjusted to redox equilibrium
      Specific Conductance (µS/cm, 100°C)  = 3166
                          Density (g/cm³)  =   0.96229
                               Volume (L)  =   1.05204
                        Viscosity (mPa s)  =   0.30590
                        Activity of water  =   0.995
                 Ionic strength (mol/kgw)  =   1.826e-02
                       Mass of water (kg)  =   9.991e-01
                 Total alkalinity (eq/kg)  =   1.217e-02
                       Total CO2 (mol/kg)  =   2.908e-01
                         Temperature (°C)  = 100.00
                           Pressure (atm)  = 29.68
                  Electrical balance (eq)  =   2.291e-10
 Percent error, 100*(Cat-|An|)/(Cat+|An|)  =   0.00
                               Iterations  =  26
                                  Total H  = 1.109282e+02
                                  Total O  = 5.605119e+01

----------------------------Distribution of species----------------------------

                                               Log       Log       Log    mole V
   Species          Molality    Activity  Molality  Activity     Gamma   cm³/mol

   H+              1.113e-05   9.760e-06    -4.953    -5.011    -0.057      0.00
   OH-             7.075e-08   6.027e-08    -7.150    -7.220    -0.070     -5.80
   H2O             5.551e+01   9.951e-01     1.744    -0.002     0.000     18.77
C(-4)         0.000e+00
   CH4             0.000e+00   0.000e+00   -88.951   -88.950     0.002     41.02
C(4)          2.908e-01
   CO2             2.655e-01   2.662e-01    -0.576    -0.575     0.001     38.81
   HCO3-           1.217e-02   1.049e-02    -1.915    -1.979    -0.065     24.09
   (CO2)2          6.551e-03   6.578e-03    -2.184    -2.182     0.002     77.62
   CaCO3           3.763e-06   3.779e-06    -5.424    -5.423     0.002    -14.26
   CO3-2           1.406e-07   7.743e-08    -6.852    -7.111    -0.259     -7.64
   CaHCO3+         0.000e+00   0.000e+00  -114.540  -114.608    -0.068     (0)  
Ca            6.085e-03
   Ca+2            6.081e-03   3.343e-03    -2.216    -2.476    -0.260    -18.93
   CaCO3           3.763e-06   3.779e-06    -5.424    -5.423     0.002    -14.26
   CaOH+           6.614e-11   5.655e-11   -10.180   -10.248    -0.068     (0)  
   CaHCO3+         0.000e+00   0.000e+00  -114.540  -114.608    -0.068     (0)  
H(0)          8.195e-30
   H2              4.097e-30   4.115e-30   -29.388   -29.386     0.002     28.56
O(0)          1.009e-14
   O2              5.046e-15   5.068e-15   -14.297   -14.295     0.002     33.80

------------------------------Saturation indices-------------------------------

  Phase               SI** log IAP   log K(373 K,  30 atm)

  Aragonite        -0.45     -9.59   -9.14  CaCO3
  Calcite          -0.00     -9.59   -9.59  CaCO3
  CH4(g)          -85.93    -88.95   -3.02  CH4
  CO2(g)            1.42     -0.57   -1.99  CO2	 Pressure  28.5 atm, phi 0.923
  H2(g)           -26.27    -29.39   -3.11  H2
  H2O(g)            0.00     -0.00   -0.00  H2O	 Pressure   1.2 atm, phi 0.847
  O2(g)           -11.17    -14.30   -3.13  O2

**For a gas, SI = log10(fugacity). Fugacity = pressure * phi / 1 atm.
  For ideal gases, phi = 1.

Reaction step 13.

Using solution 1.	
Using pure phase assemblage 1.	
Using gas phase 1.	
Using reaction 1.	

Reaction 1.	

	  3.000e-01 moles of the following reaction have been added:

	                 Relative
	Reactant            moles

	CO2                  1.00000

	                 Relative
	Element             moles
	C                    1.00000
	O                    2.00000

-----------------------------------Gas phase-----------------------------------

Total pressure: 35.93      atmospheres          (Peng-Robinson calculation)
    Gas volume:   1.00e+00 liters
  Molar volume:   7.67e-01 liters/mole
   P * Vm / RT:  0.89953  (Compressibility Factor Z) 

                                                        Moles in gas
                                            ----------------------------------
Component         log P           P    phi     Initial       Final       Delta

CO2(g)             1.54   3.471e+01  0.908   1.016e+00   1.260e+00   2.444e-01
H2O(g)             0.09   1.229e+00  0.817   4.214e-02   4.461e-02   2.468e-03

-------------------------------Phase assemblage--------------------------------

                                                      Moles in assemblage
Phase               SI  log IAP  log K(T, P)   Initial       Final       Delta

Calcite          -0.00    -9.58     -9.58    9.994e+00   9.993e+00  -4.383e-04

-----------------------------Solution composition------------------------------

	Elements           Molality       Moles

	C                 3.468e-01   3.465e-01
	Ca                6.524e-03   6.518e-03

----------------------------Description of solution----------------------------

                                       pH  =   4.962      Charge balance
                                       pe  =   7.937      Adjusted to redox equilibrium
      Specific Conductance (µS/cm, 100°C)  = 3360
                          Density (g/cm³)  =   0.96300
                               Volume (L)  =   1.05380
                        Viscosity (mPa s)  =   0.30792
                        Activity of water  =   0.994
                 Ionic strength (mol/kgw)  =   1.957e-02
                       Mass of water (kg)  =   9.991e-01
                 Total alkalinity (eq/kg)  =   1.305e-02
                       Total CO2 (mol/kg)  =   3.468e-01
                         Temperature (°C)  = 100.00
                           Pressure (atm)  = 35.93
                  Electrical balance (eq)  =   2.417e-10
 Percent error, 100*(Cat-|An|)/(Cat+|An|)  =   0.00
                               Iterations  =  26
                                  Total H  = 1.109232e+02
                                  Total O  = 5.616118e+01

----------------------------Distribution of species----------------------------

                                               Log       Log       Log    mole V
   Species          Molality    Activity  Molality  Activity     Gamma   cm³/mol

   H+              1.250e-05   1.092e-05    -4.903    -4.962    -0.059      0.00
   OH-             6.379e-08   5.408e-08    -7.195    -7.267    -0.072     -5.82
   H2O             5.551e+01   9.941e-01     1.744    -0.003     0.000     18.77
C(-4)         0.000e+00
   CH4             0.000e+00   0.000e+00   -88.213   -88.211     0.002     41.02
C(4)          3.468e-01
   CO2             3.153e-01   3.162e-01    -0.501    -0.500     0.001     38.79
   HCO3-           1.305e-02   1.120e-02    -1.884    -1.951    -0.067     24.13
   (CO2)2          9.241e-03   9.282e-03    -2.034    -2.032     0.002     77.58
   CaCO3           3.802e-06   3.819e-06    -5.420    -5.418     0.002    -14.22
   CO3-2           1.373e-07   7.436e-08    -6.862    -7.129    -0.266     -7.53
   CaHCO3+         0.000e+00   0.000e+00  -114.486  -114.556    -0.070     (0)  
Ca            6.524e-03
   Ca+2            6.520e-03   3.525e-03    -2.186    -2.453    -0.267    -18.86
   CaCO3           3.802e-06   3.819e-06    -5.420    -5.418     0.002    -14.22
   CaOH+           6.256e-11   5.325e-11   -10.204   -10.274    -0.070     (0)  
   CaHCO3+         0.000e+00   0.000e+00  -114.486  -114.556    -0.070     (0)  
H(0)          1.196e-29
   H2              5.978e-30   6.005e-30   -29.223   -29.222     0.002     28.55
O(0)          4.678e-15
   O2              2.339e-15   2.349e-15   -14.631   -14.629     0.002     33.78

------------------------------Saturation indices-------------------------------

  Phase               SI** log IAP   log K(373 K,  36 atm)

  Aragonite        -0.45     -9.58   -9.14  CaCO3
  Calcite          -0.00     -9.58   -9.58  CaCO3
  CH4(g)          -85.19    -88.21   -3.02  CH4
  CO2(g)            1.50     -0.50   -2.00  CO2	 Pressure  34.7 atm, phi 0.908
  H2(g)           -26.11    -29.22   -3.11  H2
  H2O(g)            0.00     -0.00   -0.00  H2O	 Pressure   1.2 atm, phi 0.817
  O2(g)           -11.50    -14.63   -3.13  O2

**For a gas, SI = log10(fugacity). Fugacity = pressure * phi / 1 atm.
  For ideal gases, phi = 1.

Reaction step 14.

Using solution 1.	
Using pure phase assemblage 1.	
Using gas phase 1.	
Using reaction 1.	

Reaction 1.	

	  3.000e-01 moles of the following reaction have been added:

	                 Relative
	Reactant            moles

	CO2                  1.00000

	                 Relative
	Element             moles
	C                    1.00000
	O                    2.00000

-----------------------------------Gas phase-----------------------------------

Total pressure: 42.04      atmospheres          (Peng-Robinson calculation)
    Gas volume:   1.00e+00 liters
  Molar volume:   6.43e-01 liters/mole
   P * Vm / RT:  0.88292  (Compressibility Factor Z) 

                                                        Moles in gas
                                            ----------------------------------
Component         log P           P    phi     Initial       Final       Delta

CO2(g)             1.61   4.076e+01  0.893   1.260e+00   1.508e+00   2.477e-01
H2O(g)             0.11   1.276e+00  0.789   4.461e-02   4.720e-02   2.596e-03

-------------------------------Phase assemblage--------------------------------

                                                      Moles in assemblage
Phase               SI  log IAP  log K(T, P)   Initial       Final       Delta

Calcite          -0.00    -9.58     -9.58    9.993e+00   9.993e+00  -3.769e-04

-----------------------------Solution composition------------------------------

	Elements           Molality       Moles

	C                 3.995e-01   3.992e-01
	Ca                6.902e-03   6.895e-03

----------------------------Description of solution----------------------------

                                       pH  =   4.923      Charge balance
                                       pe  =   8.011      Adjusted to redox equilibrium
      Specific Conductance (µS/cm, 100°C)  = 3523
                          Density (g/cm³)  =   0.96367
                               Volume (L)  =   1.05545
                        Viscosity (mPa s)  =   0.30968
                        Activity of water  =   0.993
                 Ionic strength (mol/kgw)  =   2.071e-02
                       Mass of water (kg)  =   9.990e-01
                 Total alkalinity (eq/kg)  =   1.380e-02
                       Total CO2 (mol/kg)  =   3.995e-01
                         Temperature (°C)  = 100.00
                           Pressure (atm)  = 42.04
                  Electrical balance (eq)  =   2.533e-10
 Percent error, 100*(Cat-|An|)/(Cat+|An|)  =   0.00
                               Iterations  =  26
                                  Total H  = 1.109180e+02
                                  Total O  = 5.626422e+01

----------------------------Distribution of species----------------------------

                                               Log       Log       Log    mole V
   Species          Molality    Activity  Molality  Activity     Gamma   cm³/mol

   H+              1.370e-05   1.194e-05    -4.863    -4.923    -0.060      0.00
   OH-             5.880e-08   4.965e-08    -7.231    -7.304    -0.073     -5.83
   H2O             5.551e+01   9.933e-01     1.744    -0.003     0.000     18.76
C(-4)         0.000e+00
   CH4             0.000e+00   0.000e+00   -88.434   -88.432     0.002     41.01
C(4)          3.995e-01
   CO2             3.614e-01   3.626e-01    -0.442    -0.441     0.001     38.77
   HCO3-           1.381e-02   1.181e-02    -1.860    -1.928    -0.068     24.18
   (CO2)2          1.214e-02   1.220e-02    -1.916    -1.914     0.002     77.54
   CaCO3           3.839e-06   3.858e-06    -5.416    -5.414     0.002    -14.18
   CO3-2           1.350e-07   7.214e-08    -6.870    -7.142    -0.272     -7.42
   CaHCO3+         0.000e+00   0.000e+00  -114.443  -114.514    -0.072     (0)  
Ca            6.902e-03
   Ca+2            6.898e-03   3.679e-03    -2.161    -2.434    -0.273    -18.79
   CaCO3           3.839e-06   3.858e-06    -5.416    -5.414     0.002    -14.18
   CaOH+           5.987e-11   5.078e-11   -10.223   -10.294    -0.072     (0)  
   CaHCO3+         0.000e+00   0.000e+00  -114.443  -114.514    -0.072     (0)  
H(0)          1.013e-29
   H2              5.064e-30   5.088e-30   -29.295   -29.293     0.002     28.55
O(0)          6.432e-15
   O2              3.216e-15   3.232e-15   -14.493   -14.491     0.002     33.76

------------------------------Saturation indices-------------------------------

  Phase               SI** log IAP   log K(373 K,  42 atm)

  Aragonite        -0.45     -9.58   -9.13  CaCO3
  Calcite          -0.00     -9.58   -9.58  CaCO3
  CH4(g)          -85.40    -88.43   -3.03  CH4
  CO2(g)            1.56     -0.44   -2.00  CO2	 Pressure  40.8 atm, phi 0.893
  H2(g)           -26.18    -29.29   -3.12  H2
  H2O(g)            0.00     -0.00   -0.01  H2O	 Pressure   1.3 atm, phi 0.789
  O2(g)           -11.36    -14.49   -3.13  O2

**For a gas, SI = log10(fugacity). Fugacity = pressure * phi / 1 atm.
  For ideal gases, phi = 1.

Reaction step 15.

Using solution 1.	
Using pure phase assemblage 1.	
Using gas phase 1.	
Using reaction 1.	

Reaction 1.	

	  3.000e-01 moles of the following reaction have been added:

	                 Relative
	Reactant            moles

	CO2                  1.00000

	                 Relative
	Element             moles
	C                    1.00000
	O                    2.00000

-----------------------------------Gas phase-----------------------------------

Total pressure: 48.00      atmospheres          (Peng-Robinson calculation)
    Gas volume:   1.00e+00 liters
  Molar volume:   5.53e-01 liters/mole
   P * Vm / RT:  0.86673  (Compressibility Factor Z) 

                                                        Moles in gas
                                            ----------------------------------
Component         log P           P    phi     Initial       Final       Delta

CO2(g)             1.67   4.667e+01  0.879   1.508e+00   1.759e+00   2.509e-01
H2O(g)             0.12   1.325e+00  0.762   4.720e-02   4.993e-02   2.728e-03

-------------------------------Phase assemblage--------------------------------

                                                      Moles in assemblage
Phase               SI  log IAP  log K(T, P)   Initial       Final       Delta

Calcite          -0.00    -9.57     -9.57    9.993e+00   9.993e+00  -3.301e-04

-----------------------------Solution composition------------------------------

	Elements           Molality       Moles

	C                 4.490e-01   4.486e-01
	Ca                7.232e-03   7.225e-03

----------------------------Description of solution----------------------------

                                       pH  =   4.891      Charge balance
                                       pe  =   8.054      Adjusted to redox equilibrium
      Specific Conductance (µS/cm, 100°C)  = 3663
                          Density (g/cm³)  =   0.96430
                               Volume (L)  =   1.05698
                        Viscosity (mPa s)  =   0.31125
                        Activity of water  =   0.993
                 Ionic strength (mol/kgw)  =   2.170e-02
                       Mass of water (kg)  =   9.990e-01
                 Total alkalinity (eq/kg)  =   1.446e-02
                       Total CO2 (mol/kg)  =   4.490e-01
                         Temperature (°C)  = 100.00
                           Pressure (atm)  = 48.00
                  Electrical balance (eq)  =   2.632e-10
 Percent error, 100*(Cat-|An|)/(Cat+|An|)  =   0.00
                               Iterations  =  26
                                  Total H  = 1.109126e+02
                                  Total O  = 5.636063e+01

----------------------------Distribution of species----------------------------

                                               Log       Log       Log    mole V
   Species          Molality    Activity  Molality  Activity     Gamma   cm³/mol

   H+              1.478e-05   1.285e-05    -4.830    -4.891    -0.061      0.00
   OH-             5.504e-08   4.632e-08    -7.259    -7.334    -0.075     -5.85
   H2O             5.551e+01   9.925e-01     1.744    -0.003     0.000     18.75
C(-4)         0.000e+00
   CH4             0.000e+00   0.000e+00   -88.476   -88.474     0.002     41.00
C(4)          4.490e-01
   CO2             4.042e-01   4.055e-01    -0.393    -0.392     0.001     38.76
   (CO2)2          1.519e-02   1.526e-02    -1.819    -1.816     0.002     77.51
   HCO3-           1.447e-02   1.234e-02    -1.839    -1.909    -0.069     24.22
   CaCO3           3.877e-06   3.896e-06    -5.412    -5.409     0.002    -14.15
   CO3-2           1.334e-07   7.047e-08    -6.875    -7.152    -0.277     -7.32
   CaHCO3+         0.000e+00   0.000e+00  -114.406  -114.479    -0.073     (0)  
Ca            7.232e-03
   Ca+2            7.229e-03   3.812e-03    -2.141    -2.419    -0.278    -18.73
   CaCO3           3.877e-06   3.896e-06    -5.412    -5.409     0.002    -14.15
   CaOH+           5.778e-11   4.885e-11   -10.238   -10.311    -0.073     (0)  
   CaHCO3+         0.000e+00   0.000e+00  -114.406  -114.479    -0.073     (0)  
H(0)          9.574e-30
   H2              4.787e-30   4.811e-30   -29.320   -29.318     0.002     28.55
O(0)          7.108e-15
   O2              3.554e-15   3.572e-15   -14.449   -14.447     0.002     33.74

------------------------------Saturation indices-------------------------------

  Phase               SI** log IAP   log K(373 K,  48 atm)

  Aragonite        -0.45     -9.57   -9.13  CaCO3
  Calcite          -0.00     -9.57   -9.57  CaCO3
  CH4(g)          -85.44    -88.47   -3.03  CH4
  CO2(g)            1.61     -0.39   -2.01  CO2	 Pressure  46.7 atm, phi 0.879
  H2(g)           -26.20    -29.32   -3.12  H2
  H2O(g)            0.00     -0.00   -0.01  H2O	 Pressure   1.3 atm, phi 0.762
  O2(g)           -11.31    -14.45   -3.14  O2

**For a gas, SI = log10(fugacity). Fugacity = pressure * phi / 1 atm.
  For ideal gases, phi = 1.

Reaction step 16.

Using solution 1.	
Using pure phase assemblage 1.	
Using gas phase 1.	
Using reaction 1.	

Reaction 1.	

	  3.000e-01 moles of the following reaction have been added:

	                 Relative
	Reactant            moles

	CO2                  1.00000

	                 Relative
	Element             moles
	C                    1.00000
	O                    2.00000

-----------------------------------Gas phase-----------------------------------

Total pressure: 53.82      atmospheres          (Peng-Robinson calculation)
    Gas volume:   1.00e+00 liters
  Molar volume:   4.84e-01 liters/mole
   P * Vm / RT:  0.85099  (Compressibility Factor Z) 

                                                        Moles in gas
                                            ----------------------------------
Component         log P           P    phi     Initial       Final       Delta

CO2(g)             1.72   5.244e+01  0.865   1.759e+00   2.013e+00   2.539e-01
H2O(g)             0.14   1.376e+00  0.736   4.993e-02   5.279e-02   2.862e-03

-------------------------------Phase assemblage--------------------------------

                                                      Moles in assemblage
Phase               SI  log IAP  log K(T, P)   Initial       Final       Delta

Calcite          -0.00    -9.57     -9.57    9.993e+00   9.992e+00  -2.930e-04

-----------------------------Solution composition------------------------------

	Elements           Molality       Moles

	C                 4.954e-01   4.949e-01
	Ca                7.526e-03   7.518e-03

----------------------------Description of solution----------------------------

                                       pH  =   4.864      Charge balance
                                       pe  =   0.586      Adjusted to redox equilibrium
      Specific Conductance (µS/cm, 100°C)  = 3785
                          Density (g/cm³)  =   0.96491
                               Volume (L)  =   1.05840
                        Viscosity (mPa s)  =   0.31265
                        Activity of water  =   0.992
                 Ionic strength (mol/kgw)  =   2.258e-02
                       Mass of water (kg)  =   9.989e-01
                 Total alkalinity (eq/kg)  =   1.505e-02
                       Total CO2 (mol/kg)  =   4.954e-01
                         Temperature (°C)  = 100.00
                           Pressure (atm)  = 53.82
                  Electrical balance (eq)  =   2.700e-10
 Percent error, 100*(Cat-|An|)/(Cat+|An|)  =   0.00
                               Iterations  =  31
                                  Total H  = 1.109069e+02
                                  Total O  = 5.645075e+01

----------------------------Distribution of species----------------------------

                                               Log       Log       Log    mole V
   Species          Molality    Activity  Molality  Activity     Gamma   cm³/mol

   H+              1.575e-05   1.367e-05    -4.803    -4.864    -0.061      0.00
   OH-             5.210e-08   4.372e-08    -7.283    -7.359    -0.076     -5.87
   H2O             5.551e+01   9.918e-01     1.744    -0.004     0.000     18.75
C(-4)         3.324e-29
   CH4             3.324e-29   3.341e-29   -28.478   -28.476     0.002     41.00
C(4)          4.954e-01
   CO2             4.438e-01   4.453e-01    -0.353    -0.351     0.001     38.74
   (CO2)2          1.831e-02   1.840e-02    -1.737    -1.735     0.002     77.48
   HCO3-           1.506e-02   1.281e-02    -1.822    -1.892    -0.070     24.26
   CaCO3           3.913e-06   3.934e-06    -5.407    -5.405     0.002    -14.11
   CO3-2           1.322e-07   6.919e-08    -6.879    -7.160    -0.281     -7.23
   CaHCO3+         0.000e+00   0.000e+00  -114.375  -114.449    -0.074     (0)  
Ca            7.526e-03
   Ca+2            7.522e-03   3.928e-03    -2.124    -2.406    -0.282    -18.67
   CaCO3           3.913e-06   3.934e-06    -5.407    -5.405     0.002    -14.11
   CaOH+           5.609e-11   4.730e-11   -10.251   -10.325    -0.074     (0)  
   CaHCO3+         0.000e+00   0.000e+00  -114.375  -114.449    -0.074     (0)  
H(0)          9.301e-15
   H2              4.651e-15   4.675e-15   -14.332   -14.330     0.002     28.54
O(0)          0.000e+00
   O2              0.000e+00   0.000e+00   -44.429   -44.427     0.002     33.72

------------------------------Saturation indices-------------------------------

  Phase               SI** log IAP   log K(373 K,  54 atm)

  Aragonite        -0.44     -9.57   -9.12  CaCO3
  Calcite          -0.00     -9.57   -9.57  CaCO3
  CH4(g)          -25.44    -28.48   -3.04  CH4
  CO2(g)            1.66     -0.35   -2.01  CO2	 Pressure  52.4 atm, phi 0.865
  H2(g)           -11.21    -14.33   -3.12  H2
  H2O(g)            0.01     -0.00   -0.01  H2O	 Pressure   1.4 atm, phi 0.736
  O2(g)           -41.29    -44.43   -3.14  O2

**For a gas, SI = log10(fugacity). Fugacity = pressure * phi / 1 atm.
  For ideal gases, phi = 1.

Reaction step 17.

Using solution 1.	
Using pure phase assemblage 1.	
Using gas phase 1.	
Using reaction 1.	

Reaction 1.	

	  3.000e-01 moles of the following reaction have been added:

	                 Relative
	Reactant            moles

	CO2                  1.00000

	                 Relative
	Element             moles
	C                    1.00000
	O                    2.00000

-----------------------------------Gas phase-----------------------------------

Total pressure: 59.50      atmospheres          (Peng-Robinson calculation)
    Gas volume:   1.00e+00 liters
  Molar volume:   4.30e-01 liters/mole
   P * Vm / RT:  0.83569  (Compressibility Factor Z) 

                                                        Moles in gas
                                            ----------------------------------
Component         log P           P    phi     Initial       Final       Delta

CO2(g)             1.76   5.807e+01  0.852   2.013e+00   2.269e+00   2.568e-01
H2O(g)             0.15   1.428e+00  0.711   5.279e-02   5.579e-02   3.000e-03

-------------------------------Phase assemblage--------------------------------

                                                      Moles in assemblage
Phase               SI  log IAP  log K(T, P)   Initial       Final       Delta

Calcite          -0.00    -9.56     -9.56    9.992e+00   9.992e+00  -2.627e-04

-----------------------------Solution composition------------------------------

	Elements           Molality       Moles

	C                 5.390e-01   5.383e-01
	Ca                7.790e-03   7.781e-03

----------------------------Description of solution----------------------------

                                       pH  =   4.841      Charge balance
                                       pe  =   0.467      Adjusted to redox equilibrium
      Specific Conductance (µS/cm, 100°C)  = 3892
                          Density (g/cm³)  =   0.96548
                               Volume (L)  =   1.05971
                        Viscosity (mPa s)  =   0.31393
                        Activity of water  =   0.991
                 Ionic strength (mol/kgw)  =   2.337e-02
                       Mass of water (kg)  =   9.989e-01
                 Total alkalinity (eq/kg)  =   1.558e-02
                       Total CO2 (mol/kg)  =   5.390e-01
                         Temperature (°C)  = 100.00
                           Pressure (atm)  = 59.50
                  Electrical balance (eq)  =   2.766e-10
 Percent error, 100*(Cat-|An|)/(Cat+|An|)  =   0.00
                               Iterations  =  26
                                  Total H  = 1.109009e+02
                                  Total O  = 5.653491e+01

----------------------------Distribution of species----------------------------

                                               Log       Log       Log    mole V
   Species          Molality    Activity  Molality  Activity     Gamma   cm³/mol

   H+              1.663e-05   1.441e-05    -4.779    -4.841    -0.062      0.00
   OH-             4.975e-08   4.165e-08    -7.303    -7.380    -0.077     -5.89
   H2O             5.551e+01   9.911e-01     1.744    -0.004     0.000     18.74
C(-4)         4.842e-28
   CH4             4.842e-28   4.868e-28   -27.315   -27.313     0.002     40.99
C(4)          5.390e-01
   CO2             4.805e-01   4.822e-01    -0.318    -0.317     0.002     38.72
   (CO2)2          2.146e-02   2.158e-02    -1.668    -1.666     0.002     77.44
   HCO3-           1.559e-02   1.323e-02    -1.807    -1.878    -0.071     24.29
   CaCO3           3.950e-06   3.971e-06    -5.403    -5.401     0.002    -14.08
   CO3-2           1.314e-07   6.819e-08    -6.881    -7.166    -0.285     -7.14
   CaHCO3+         0.000e+00   0.000e+00  -114.348  -114.424    -0.075     (0)  
Ca            7.790e-03
   Ca+2            7.786e-03   4.031e-03    -2.109    -2.395    -0.286    -18.62
   CaCO3           3.950e-06   3.971e-06    -5.403    -5.401     0.002    -14.08
   CaOH+           5.471e-11   4.603e-11   -10.262   -10.337    -0.075     (0)  
   CaHCO3+         0.000e+00   0.000e+00  -114.348  -114.424    -0.075     (0)  
H(0)          1.774e-14
   H2              8.872e-15   8.920e-15   -14.052   -14.050     0.002     28.54
O(0)          0.000e+00
   O2              0.000e+00   0.000e+00   -44.996   -44.993     0.002     33.71

------------------------------Saturation indices-------------------------------

  Phase               SI** log IAP   log K(373 K,  60 atm)

  Aragonite        -0.44     -9.56   -9.12  CaCO3
  Calcite          -0.00     -9.56   -9.56  CaCO3
  CH4(g)          -24.27    -27.31   -3.04  CH4
  CO2(g)            1.69     -0.32   -2.01  CO2	 Pressure  58.1 atm, phi 0.852
  H2(g)           -10.93    -14.05   -3.12  H2
  H2O(g)            0.01     -0.00   -0.01  H2O	 Pressure   1.4 atm, phi 0.711
  O2(g)           -41.85    -44.99   -3.14  O2

**For a gas, SI = log10(fugacity). Fugacity = pressure * phi / 1 atm.
  For ideal gases, phi = 1.

Reaction step 18.

Using solution 1.	
Using pure phase assemblage 1.	
Using gas phase 1.	
Using reaction 1.	

Reaction 1.	

	  3.000e-01 moles of the following reaction have been added:

	                 Relative
	Reactant            moles

	CO2                  1.00000

	                 Relative
	Element             moles
	C                    1.00000
	O                    2.00000

-----------------------------------Gas phase-----------------------------------

Total pressure: 65.05      atmospheres          (Peng-Robinson calculation)
    Gas volume:   1.00e+00 liters
  Molar volume:   3.86e-01 liters/mole
   P * Vm / RT:  0.82085  (Compressibility Factor Z) 

                                                        Moles in gas
                                            ----------------------------------
Component         log P           P    phi     Initial       Final       Delta

CO2(g)             1.80   6.357e+01  0.840   2.269e+00   2.529e+00   2.595e-01
H2O(g)             0.17   1.481e+00  0.687   5.579e-02   5.893e-02   3.140e-03

-------------------------------Phase assemblage--------------------------------

                                                      Moles in assemblage
Phase               SI  log IAP  log K(T, P)   Initial       Final       Delta

Calcite          -0.00    -9.56     -9.56    9.992e+00   9.992e+00  -2.375e-04

-----------------------------Solution composition------------------------------

	Elements           Molality       Moles

	C                 5.798e-01   5.791e-01
	Ca                8.028e-03   8.018e-03

----------------------------Description of solution----------------------------

                                       pH  =   4.822      Charge balance
                                       pe  =   0.491      Adjusted to redox equilibrium
      Specific Conductance (µS/cm, 100°C)  = 3988
                          Density (g/cm³)  =   0.96603
                               Volume (L)  =   1.06092
                        Viscosity (mPa s)  =   0.31510
                        Activity of water  =   0.990
                 Ionic strength (mol/kgw)  =   2.409e-02
                       Mass of water (kg)  =   9.988e-01
                 Total alkalinity (eq/kg)  =   1.606e-02
                       Total CO2 (mol/kg)  =   5.798e-01
                         Temperature (°C)  = 100.00
                           Pressure (atm)  = 65.05
                  Electrical balance (eq)  =   2.877e-10
 Percent error, 100*(Cat-|An|)/(Cat+|An|)  =   0.00
                               Iterations  =  25
                                  Total H  = 1.108946e+02
                                  Total O  = 5.661344e+01

----------------------------Distribution of species----------------------------

                                               Log       Log       Log    mole V
   Species          Molality    Activity  Molality  Activity     Gamma   cm³/mol

   H+              1.742e-05   1.508e-05    -4.759    -4.822    -0.063      0.00
   OH-             4.783e-08   3.995e-08    -7.320    -7.399    -0.078     -5.91
   H2O             5.551e+01   9.904e-01     1.744    -0.004     0.000     18.74
C(-4)         4.777e-28
   CH4             4.777e-28   4.804e-28   -27.321   -27.318     0.002     40.98
C(4)          5.798e-01
   CO2             5.145e-01   5.164e-01    -0.289    -0.287     0.002     38.71
   (CO2)2          2.461e-02   2.475e-02    -1.609    -1.606     0.002     77.41
   HCO3-           1.606e-02   1.361e-02    -1.794    -1.866    -0.072     24.33
   CaCO3           3.985e-06   4.008e-06    -5.400    -5.397     0.002    -14.04
   CO3-2           1.309e-07   6.740e-08    -6.883    -7.171    -0.288     -7.06
   CaHCO3+         0.000e+00   0.000e+00  -114.325  -114.401    -0.076     (0)  
Ca            8.028e-03
   Ca+2            8.024e-03   4.124e-03    -2.096    -2.385    -0.289    -18.56
   CaCO3           3.985e-06   4.008e-06    -5.400    -5.397     0.002    -14.04
   CaOH+           5.356e-11   4.496e-11   -10.271   -10.347    -0.076     (0)  
   CaHCO3+         0.000e+00   0.000e+00  -114.325  -114.401    -0.076     (0)  
H(0)          1.732e-14
   H2              8.659e-15   8.707e-15   -14.063   -14.060     0.002     28.54
O(0)          0.000e+00
   O2              0.000e+00   0.000e+00   -44.979   -44.977     0.002     33.69

------------------------------Saturation indices-------------------------------

  Phase               SI** log IAP   log K(373 K,  65 atm)

  Aragonite        -0.44     -9.56   -9.11  CaCO3
  Calcite          -0.00     -9.56   -9.56  CaCO3
  CH4(g)          -24.28    -27.32   -3.04  CH4
  CO2(g)            1.73     -0.29   -2.01  CO2	 Pressure  63.6 atm, phi 0.840
  H2(g)           -10.93    -14.06   -3.13  H2
  H2O(g)            0.01     -0.00   -0.01  H2O	 Pressure   1.5 atm, phi 0.687
  O2(g)           -41.83    -44.98   -3.15  O2

**For a gas, SI = log10(fugacity). Fugacity = pressure * phi / 1 atm.
  For ideal gases, phi = 1.

------------------
End of simulation.
------------------

------------------------------------
Reading input data for simulation 2.
------------------------------------

