WARNING: Database file from DATABASE keyword is used; command line argument ignored.
   Input file: cc_P3
  Output file: cc_P3.out
Database file: ../database/phreeqc.dat

------------------
Reading data base.
------------------

	SOLUTION_MASTER_SPECIES
	SOLUTION_SPECIES
	PHASES
	EXCHANGE_MASTER_SPECIES
	EXCHANGE_SPECIES
	SURFACE_MASTER_SPECIES
	SURFACE_SPECIES
	RATES
	END
------------------------------------
Reading input data for simulation 1.
------------------------------------

	DATABASE ../database/phreeqc.dat
	SOLUTION_SPECIES
	Ca+2 + CO3-2 + H+ = CaHCO3+
		log_k	-100 # remove this complex, data from Ellis, 1963 and Segnit et al. 1962.
	SOLUTION 1
	 pH 7 charge
	 pressure 9.87
	EQUILIBRIUM_PHASES
	 Calcite
	 CO2(g) 0.994
	GAS_PHASE
	 fixed_volume
	 volume 0.1
	 CO2(g) 0
	 H2O(g) 0
	REACTION_TEMPERATURE
	 1 110 in 20
	USER_GRAPH
	-headings tk #Ca_tot Ca+2 CaCO3 CaHCO3+ SI_arg
	 -plot_csv_file cc_p_CO2.dat
	 -connect_simulations false
	 -axis_scale x_axis 270 500
	 -axis_titles "Temperature / K" "Calcite solubility / (mol/kgw)"
	 10 graph_x tk
	 20 graph_y  tot("Ca"), # mol("Ca+2"), mol("CaCO3"), mol("CaHCO3+")
	END
-------------------------------------------
Beginning of initial solution calculations.
-------------------------------------------

Initial solution 1.	

-----------------------------Solution composition------------------------------

	Elements           Molality       Moles

	Pure water     

----------------------------Description of solution----------------------------

                                       pH  =   6.996      Charge balance
                                       pe  =   4.000    
       Specific Conductance (uS/cm, 25 oC) = 0
                          Density (g/cm3)  =   0.99744
                               Volume (L)  =   1.00256
                        Activity of water  =   1.000
                           Ionic strength  =   1.010e-07
                       Mass of water (kg)  =   1.000e+00
                 Total alkalinity (eq/kg)  =   3.828e-17
                    Total carbon (mol/kg)  =   0.000e+00
                       Total CO2 (mol/kg)  =   0.000e+00
                      Temperature (deg C)  =  25.00
                           Pressure (atm)  =  9.87
                  Electrical balance (eq)  =  -3.828e-17
 Percent error, 100*(Cat-|An|)/(Cat+|An|)  =  -0.00
                               Iterations  =   2
                                  Total H  = 1.110124e+02
                                  Total O  = 5.550622e+01

----------------------------Distribution of species----------------------------

                                               Log       Log       Log    mole V
   Species          Molality    Activity  Molality  Activity     Gamma   cm3/mol

   OH-             1.010e-07   1.010e-07    -6.995    -6.996    -0.000     -4.10
   H+              1.010e-07   1.010e-07    -6.995    -6.996    -0.000      0.00
   H2O             5.551e+01   1.000e+00     1.744    -0.000     0.000     18.06
H(0)          1.430e-25
   H2              7.149e-26   7.149e-26   -25.146   -25.146     0.000     28.60
O(0)          0.000e+00
   O2              0.000e+00   0.000e+00   -42.097   -42.097     0.000     30.39

------------------------------Saturation indices-------------------------------

	Phase               SI   log IAP   log K(298 K,  10 atm)

	H2(g)           -22.04    -25.15   -3.10  H2
	H2O(g)           -1.50     -0.00    1.50  H2O
	O2(g)           -39.20    -42.10   -2.90  O2


-----------------------------------------
Beginning of batch-reaction calculations.
-----------------------------------------

Reaction step 1.

Using solution 1.	
Using pure phase assemblage 1.	
Using gas phase 1.	
Using temperature 1.	

-----------------------------------Gas phase-----------------------------------

Total pressure:  9.87      atmospheres          (Peng-Robinson calculation)
    Gas volume:   1.00e-01 liters
  Molar volume:   2.11e+00 liters/mole
   P * Vm / RT:  0.92652  (Compressibility Factor Z) 

                                                        Moles in gas
                                            ----------------------------------
Component         log P           P    phi     Initial       Final       Delta

CO2(g)             0.99   9.863e+00  0.931   0.000e+00   4.732e-02   4.732e-02
H2O(g)            -2.13   7.432e-03  0.886   0.000e+00   3.565e-05   3.565e-05

-------------------------------Phase assemblage--------------------------------

                                                      Moles in assemblage
Phase               SI  log IAP  log K(T, P)   Initial       Final       Delta

CO2(g)            0.96    -0.18     -1.13    1.000e+01   9.269e+00  -7.313e-01
Calcite           0.01    -8.37     -8.38    1.000e+01   9.969e+00  -3.097e-02

-----------------------------Solution composition------------------------------

	Elements           Molality       Moles

	C                 7.153e-01   7.149e-01
	Ca                3.099e-02   3.097e-02

----------------------------Description of solution----------------------------

                                       pH  =   5.435      Charge balance
                                       pe  =  15.713      Adjusted to redox equilibrium
       Specific Conductance (uS/cm, 1 oC) = 2558
                          Density (g/cm3)  =   1.00713
                               Volume (L)  =   1.06068
                        Activity of water  =   0.987
                           Ionic strength  =   9.295e-02
                       Mass of water (kg)  =   9.994e-01
                 Total alkalinity (eq/kg)  =   6.197e-02
                       Total CO2 (mol/kg)  =   7.153e-01
                      Temperature (deg C)  =   1.00
                           Pressure (atm)  =  9.87
                  Electrical balance (eq)  =   1.228e-10
 Percent error, 100*(Cat-|An|)/(Cat+|An|)  =   0.00
                               Iterations  =  77
                                  Total H  = 1.110124e+02
                                  Total O  = 5.696705e+01

----------------------------Distribution of species----------------------------

                                               Log       Log       Log    mole V
   Species          Molality    Activity  Molality  Activity     Gamma   cm3/mol

   H+              4.409e-06   3.674e-06    -5.356    -5.435    -0.079      0.00
   OH-             4.454e-10   3.448e-10    -9.351    -9.462    -0.111     -5.59
   H2O             5.551e+01   9.873e-01     1.744    -0.006     0.000     18.01
C(-4)         0.000e+00
   CH4             0.000e+00   0.000e+00  -141.550  -141.541     0.009     32.22
C(4)          7.153e-01
   CO2             6.534e-01   6.675e-01    -0.185    -0.176     0.009     39.82
   HCO3-           6.196e-02   4.949e-02    -1.208    -1.305    -0.098     22.05
   CaCO3           5.605e-06   5.726e-06    -5.251    -5.242     0.009    -14.63
   CO3-2           8.164e-07   3.323e-07    -6.088    -6.478    -0.390     -8.63
   CaHCO3+         0.000e+00   0.000e+00  -113.707  -113.808    -0.101     (0)  
Ca            3.099e-02
   Ca+2            3.098e-02   1.276e-02    -1.509    -1.894    -0.385    -18.22
   CaCO3           5.605e-06   5.726e-06    -5.251    -5.242     0.009    -14.63
   CaOH+           7.179e-10   5.688e-10    -9.144    -9.245    -0.101     (0)  
   CaHCO3+         0.000e+00   0.000e+00  -113.707  -113.808    -0.101     (0)  
H(0)          0.000e+00
   H2              0.000e+00   0.000e+00   -45.347   -45.337     0.009     28.64
O(0)          1.391e-10
   O2              6.955e-11   7.106e-11   -10.158   -10.148     0.009     27.66

------------------------------Saturation indices-------------------------------

	Phase               SI   log IAP   log K(274 K,  10 atm)

	Aragonite        -0.16     -8.37   -8.21  CaCO3
	Calcite          -0.00     -8.37   -8.37  CaCO3
	CH4(g)         -138.95   -141.54   -2.59  CH4
	CO2(g)            0.95     -0.18   -1.13  CO2	 Pressure   9.9 atm, phi 0.931.
	H2(g)           -42.32    -45.34   -3.02  H2
	H2O(g)           -2.18     -0.01    2.18  H2O	 Pressure   0.0 atm, phi 0.886.
	O2(g)            -7.47    -10.15   -2.68  O2


Reaction step 2.

Using solution 1.	
Using pure phase assemblage 1.	
Using gas phase 1.	
Using temperature 1.	

-----------------------------------Gas phase-----------------------------------

Total pressure:  9.87      atmospheres          (Peng-Robinson calculation)
    Gas volume:   1.00e-01 liters
  Molar volume:   2.17e+00 liters/mole
   P * Vm / RT:  0.93112  (Compressibility Factor Z) 

                                                        Moles in gas
                                            ----------------------------------
Component         log P           P    phi     Initial       Final       Delta

CO2(g)             0.99   9.864e+00  0.935   0.000e+00   4.612e-02   4.612e-02
H2O(g)            -1.96   1.102e-02  0.892   0.000e+00   5.155e-05   5.155e-05

-------------------------------Phase assemblage--------------------------------

                                                      Moles in assemblage
Phase               SI  log IAP  log K(T, P)   Initial       Final       Delta

CO2(g)            0.95    -0.26     -1.22    1.000e+01   9.391e+00  -6.092e-01
Calcite          -0.00    -8.39     -8.39    1.000e+01   9.972e+00  -2.799e-02

-----------------------------Solution composition------------------------------

	Elements           Molality       Moles

	C                 5.913e-01   5.910e-01
	Ca                2.800e-02   2.799e-02

----------------------------Description of solution----------------------------

                                       pH  =   5.412      Charge balance
                                       pe  =   0.180      Adjusted to redox equilibrium
       Specific Conductance (uS/cm, 6 oC) = 2785
                          Density (g/cm3)  =   1.00784
                               Volume (L)  =   1.04833
                        Activity of water  =   0.989
                           Ionic strength  =   8.400e-02
                       Mass of water (kg)  =   9.995e-01
                 Total alkalinity (eq/kg)  =   5.601e-02
                       Total CO2 (mol/kg)  =   5.913e-01
                      Temperature (deg C)  =   6.74
                           Pressure (atm)  =  9.87
                  Electrical balance (eq)  =  -1.010e-10
 Percent error, 100*(Cat-|An|)/(Cat+|An|)  =  -0.00
                               Iterations  =  50
                                  Total H  = 1.110123e+02
                                  Total O  = 5.671622e+01

----------------------------Distribution of species----------------------------

                                               Log       Log       Log    mole V
   Species          Molality    Activity  Molality  Activity     Gamma   cm3/mol

   H+              4.627e-06   3.870e-06    -5.335    -5.412    -0.078      0.00
   OH-             7.242e-10   5.649e-10    -9.140    -9.248    -0.108     -4.94
   H2O             5.551e+01   9.895e-01     1.744    -0.005     0.000     18.01
C(-4)         9.114e-19
   CH4             9.114e-19   9.292e-19   -18.040   -18.032     0.008     32.22
C(4)          5.913e-01
   CO2             5.353e-01   5.458e-01    -0.271    -0.263     0.008     36.73
   HCO3-           5.600e-02   4.499e-02    -1.252    -1.347    -0.095     23.08
   CaCO3           5.372e-06   5.477e-06    -5.270    -5.261     0.008    -14.60
   CO3-2           8.323e-07   3.467e-07    -6.080    -6.460    -0.380     -6.73
   CaHCO3+         0.000e+00   0.000e+00  -113.703  -113.801    -0.099     (0)  
Ca            2.800e-02
   Ca+2            2.800e-02   1.177e-02    -1.553    -1.929    -0.376    -17.94
   CaCO3           5.372e-06   5.477e-06    -5.270    -5.261     0.008    -14.60
   CaOH+           6.272e-10   4.996e-10    -9.203    -9.301    -0.099     (0)  
   CaHCO3+         0.000e+00   0.000e+00  -113.703  -113.801    -0.099     (0)  
H(0)          1.091e-14
   H2              5.457e-15   5.564e-15   -14.263   -14.255     0.008     28.63
O(0)          0.000e+00
   O2              0.000e+00   0.000e+00   -70.175   -70.167     0.008     28.53

------------------------------Saturation indices-------------------------------

	Phase               SI   log IAP   log K(279 K,  10 atm)

	Aragonite        -0.16     -8.39   -8.23  CaCO3
	Calcite           0.00     -8.39   -8.39  CaCO3
	CH4(g)          -15.37    -18.03   -2.66  CH4
	CO2(g)            0.95     -0.26   -1.22  CO2	 Pressure   9.9 atm, phi 0.935.
	H2(g)           -11.21    -14.25   -3.04  H2
	H2O(g)           -2.01     -0.00    2.00  H2O	 Pressure   0.0 atm, phi 0.892.
	O2(g)           -67.43    -70.17   -2.74  O2


Reaction step 3.

Using solution 1.	
Using pure phase assemblage 1.	
Using gas phase 1.	
Using temperature 1.	

-----------------------------------Gas phase-----------------------------------

Total pressure:  9.88      atmospheres          (Peng-Robinson calculation)
    Gas volume:   1.00e-01 liters
  Molar volume:   2.22e+00 liters/mole
   P * Vm / RT:  0.93534  (Compressibility Factor Z) 

                                                        Moles in gas
                                            ----------------------------------
Component         log P           P    phi     Initial       Final       Delta

CO2(g)             0.99   9.864e+00  0.939   0.000e+00   4.499e-02   4.499e-02
H2O(g)            -1.79   1.607e-02  0.898   0.000e+00   7.329e-05   7.329e-05

-------------------------------Phase assemblage--------------------------------

                                                      Moles in assemblage
Phase               SI  log IAP  log K(T, P)   Initial       Final       Delta

CO2(g)            0.96    -0.34     -1.30    1.000e+01   9.484e+00  -5.162e-01
Calcite          -0.00    -8.41     -8.41    1.000e+01   9.975e+00  -2.532e-02

-----------------------------Solution composition------------------------------

	Elements           Molality       Moles

	C                 4.967e-01   4.965e-01
	Ca                2.534e-02   2.532e-02

----------------------------Description of solution----------------------------

                                       pH  =   5.395      Charge balance
                                       pe  =  13.514      Adjusted to redox equilibrium
       Specific Conductance (uS/cm, 12 oC) = 2988
                          Density (g/cm3)  =   1.00744
                               Volume (L)  =   1.03987
                        Activity of water  =   0.991
                           Ionic strength  =   7.600e-02
                       Mass of water (kg)  =   9.995e-01
                 Total alkalinity (eq/kg)  =   5.067e-02
                       Total CO2 (mol/kg)  =   4.967e-01
                      Temperature (deg C)  =  12.47
                           Pressure (atm)  =  9.88
                  Electrical balance (eq)  =  -1.159e-10
 Percent error, 100*(Cat-|An|)/(Cat+|An|)  =  -0.00
                               Iterations  =  67
                                  Total H  = 1.110123e+02
                                  Total O  = 5.652447e+01

----------------------------Distribution of species----------------------------

                                               Log       Log       Log    mole V
   Species          Molality    Activity  Molality  Activity     Gamma   cm3/mol

   H+              4.803e-06   4.031e-06    -5.318    -5.395    -0.076      0.00
   OH-             1.153e-09   9.062e-10    -8.938    -9.043    -0.105     -4.45
   H2O             5.551e+01   9.911e-01     1.744    -0.004     0.000     18.02
C(-4)         0.000e+00
   CH4             0.000e+00   0.000e+00  -125.482  -125.475     0.008     32.22
C(4)          4.967e-01
   CO2             4.461e-01   4.539e-01    -0.351    -0.343     0.008     34.26
   HCO3-           5.066e-02   4.093e-02    -1.295    -1.388    -0.093     23.86
   CaCO3           5.309e-06   5.403e-06    -5.275    -5.267     0.008    -14.57
   CO3-2           8.403e-07   3.579e-07    -6.076    -6.446    -0.371     -5.32
   CaHCO3+         0.000e+00   0.000e+00  -113.708  -113.804    -0.097     (0)  
Ca            2.534e-02
   Ca+2            2.533e-02   1.087e-02    -1.596    -1.964    -0.367    -17.74
   CaCO3           5.309e-06   5.403e-06    -5.275    -5.267     0.008    -14.57
   CaOH+           5.540e-10   4.436e-10    -9.256    -9.353    -0.097     (0)  
   CaHCO3+         0.000e+00   0.000e+00  -113.708  -113.804    -0.097     (0)  
H(0)          0.000e+00
   H2              0.000e+00   0.000e+00   -40.923   -40.915     0.008     28.62
O(0)          3.224e-15
   O2              1.612e-15   1.641e-15   -14.793   -14.785     0.008     29.23

------------------------------Saturation indices-------------------------------

	Phase               SI   log IAP   log K(285 K,  10 atm)

	Aragonite        -0.15     -8.41   -8.26  CaCO3
	Calcite           0.00     -8.41   -8.41  CaCO3
	CH4(g)         -122.75   -125.47   -2.72  CH4
	CO2(g)            0.96     -0.34   -1.30  CO2	 Pressure   9.9 atm, phi 0.939.
	H2(g)           -37.85    -40.92   -3.06  H2
	H2O(g)           -1.84     -0.00    1.84  H2O	 Pressure   0.0 atm, phi 0.898.
	O2(g)           -11.99    -14.78   -2.80  O2


Reaction step 4.

Using solution 1.	
Using pure phase assemblage 1.	
Using gas phase 1.	
Using temperature 1.	

-----------------------------------Gas phase-----------------------------------

Total pressure:  9.89      atmospheres          (Peng-Robinson calculation)
    Gas volume:   1.00e-01 liters
  Molar volume:   2.27e+00 liters/mole
   P * Vm / RT:  0.93921  (Compressibility Factor Z) 

                                                        Moles in gas
                                            ----------------------------------
Component         log P           P    phi     Initial       Final       Delta

CO2(g)             0.99   9.864e+00  0.942   0.000e+00   4.393e-02   4.393e-02
H2O(g)            -1.64   2.304e-02  0.903   0.000e+00   1.026e-04   1.026e-04

-------------------------------Phase assemblage--------------------------------

                                                      Moles in assemblage
Phase               SI  log IAP  log K(T, P)   Initial       Final       Delta

CO2(g)            0.96    -0.42     -1.38    1.000e+01   9.556e+00  -4.441e-01
Calcite          -0.00    -8.44     -8.43    1.000e+01   9.977e+00  -2.293e-02

-----------------------------Solution composition------------------------------

	Elements           Molality       Moles

	C                 4.233e-01   4.231e-01
	Ca                2.294e-02   2.293e-02

----------------------------Description of solution----------------------------

                                       pH  =   5.381      Charge balance
                                       pe  =   0.185      Adjusted to redox equilibrium
       Specific Conductance (uS/cm, 18 oC) = 3163
                          Density (g/cm3)  =   1.00632
                               Volume (L)  =   1.03411
                        Activity of water  =   0.992
                           Ionic strength  =   6.881e-02
                       Mass of water (kg)  =   9.996e-01
                 Total alkalinity (eq/kg)  =   4.588e-02
                       Total CO2 (mol/kg)  =   4.233e-01
                      Temperature (deg C)  =  18.21
                           Pressure (atm)  =  9.89
                  Electrical balance (eq)  =   1.559e-10
 Percent error, 100*(Cat-|An|)/(Cat+|An|)  =   0.00
                               Iterations  =  46
                                  Total H  = 1.110122e+02
                                  Total O  = 5.637533e+01

----------------------------Distribution of species----------------------------

                                               Log       Log       Log    mole V
   Species          Molality    Activity  Molality  Activity     Gamma   cm3/mol

   H+              4.939e-06   4.160e-06    -5.306    -5.381    -0.075      0.00
   OH-             1.800e-09   1.425e-09    -8.745    -8.846    -0.102     -4.10
   H2O             5.551e+01   9.924e-01     1.744    -0.003     0.000     18.03
C(-4)         2.396e-20
   CH4             2.396e-20   2.435e-20   -19.620   -19.614     0.007     32.22
C(4)          4.233e-01
   CO2             3.774e-01   3.835e-01    -0.423    -0.416     0.007     32.24
   HCO3-           4.587e-02   3.726e-02    -1.338    -1.429    -0.090     24.48
   CaCO3           5.377e-06   5.463e-06    -5.269    -5.263     0.007    -14.55
   CO3-2           8.401e-07   3.656e-07    -6.076    -6.437    -0.361     -4.27
   CaHCO3+         0.000e+00   0.000e+00  -113.722  -113.816    -0.094     (0)  
Ca            2.294e-02
   Ca+2            2.294e-02   1.004e-02    -1.640    -1.998    -0.359    -17.60
   CaCO3           5.377e-06   5.463e-06    -5.269    -5.263     0.007    -14.55
   CaOH+           4.941e-10   3.976e-10    -9.306    -9.401    -0.094     (0)  
   CaHCO3+         0.000e+00   0.000e+00  -113.722  -113.816    -0.094     (0)  
H(0)          1.093e-14
   H2              5.466e-15   5.553e-15   -14.262   -14.255     0.007     28.61
O(0)          0.000e+00
   O2              0.000e+00   0.000e+00   -66.133   -66.126     0.007     29.81

------------------------------Saturation indices-------------------------------

	Phase               SI   log IAP   log K(291 K,  10 atm)

	Aragonite        -0.15     -8.44   -8.29  CaCO3
	Calcite          -0.00     -8.44   -8.44  CaCO3
	CH4(g)          -16.84    -19.61   -2.78  CH4
	CO2(g)            0.96     -0.42   -1.38  CO2	 Pressure   9.9 atm, phi 0.942.
	H2(g)           -11.17    -14.26   -3.08  H2
	H2O(g)           -1.68     -0.00    1.68  H2O	 Pressure   0.0 atm, phi 0.903.
	O2(g)           -63.28    -66.13   -2.85  O2


Reaction step 5.

Using solution 1.	
Using pure phase assemblage 1.	
Using gas phase 1.	
Using temperature 1.	

-----------------------------------Gas phase-----------------------------------

Total pressure:  9.90      atmospheres          (Peng-Robinson calculation)
    Gas volume:   1.00e-01 liters
  Molar volume:   2.32e+00 liters/mole
   P * Vm / RT:  0.94278  (Compressibility Factor Z) 

                                                        Moles in gas
                                            ----------------------------------
Component         log P           P    phi     Initial       Final       Delta

CO2(g)             0.99   9.865e+00  0.945   0.000e+00   4.292e-02   4.292e-02
H2O(g)            -1.49   3.253e-02  0.907   0.000e+00   1.415e-04   1.415e-04

-------------------------------Phase assemblage--------------------------------

                                                      Moles in assemblage
Phase               SI  log IAP  log K(T, P)   Initial       Final       Delta

CO2(g)            0.96    -0.48     -1.44    1.000e+01   9.613e+00  -3.875e-01
Calcite          -0.00    -8.46     -8.46    1.000e+01   9.979e+00  -2.078e-02

-----------------------------Solution composition------------------------------

	Elements           Molality       Moles

	C                 3.655e-01   3.653e-01
	Ca                2.079e-02   2.078e-02

----------------------------Description of solution----------------------------

                                       pH  =   5.371      Charge balance
                                       pe  =   0.179      Adjusted to redox equilibrium
       Specific Conductance (uS/cm, 23 oC) = 3310
                          Density (g/cm3)  =   1.00470
                               Volume (L)  =   1.03030
                        Activity of water  =   0.993
                           Ionic strength  =   6.235e-02
                       Mass of water (kg)  =   9.996e-01
                 Total alkalinity (eq/kg)  =   4.157e-02
                       Total CO2 (mol/kg)  =   3.655e-01
                      Temperature (deg C)  =  23.95
                           Pressure (atm)  =  9.90
                  Electrical balance (eq)  =   1.674e-10
 Percent error, 100*(Cat-|An|)/(Cat+|An|)  =   0.00
                               Iterations  =  45
                                  Total H  = 1.110122e+02
                                  Total O  = 5.625750e+01

----------------------------Distribution of species----------------------------

                                               Log       Log       Log    mole V
   Species          Molality    Activity  Molality  Activity     Gamma   cm3/mol

   H+              5.039e-06   4.258e-06    -5.298    -5.371    -0.073      0.00
   OH-             2.756e-09   2.196e-09    -8.560    -8.658    -0.099     -3.84
   H2O             5.551e+01   9.934e-01     1.744    -0.003     0.000     18.06
C(-4)         4.407e-21
   CH4             4.407e-21   4.470e-21   -20.356   -20.350     0.006     32.22
C(4)          3.655e-01
   CO2             3.239e-01   3.286e-01    -0.490    -0.483     0.006     30.56
   HCO3-           4.157e-02   3.394e-02    -1.381    -1.469    -0.088     24.95
   CaCO3           5.549e-06   5.629e-06    -5.256    -5.250     0.006    -14.54
   CO3-2           8.319e-07   3.696e-07    -6.080    -6.432    -0.352     -3.50
   CaHCO3+         0.000e+00   0.000e+00  -113.743  -113.836    -0.092     (0)  
Ca            2.079e-02
   Ca+2            2.078e-02   9.278e-03    -1.682    -2.033    -0.350    -17.52
   CaCO3           5.549e-06   5.629e-06    -5.256    -5.250     0.006    -14.54
   CaOH+           4.442e-10   3.592e-10    -9.352    -9.445    -0.092     (0)  
   CaHCO3+         0.000e+00   0.000e+00  -113.743  -113.836    -0.092     (0)  
H(0)          1.109e-14
   H2              5.545e-15   5.625e-15   -14.256   -14.250     0.006     28.60
O(0)          0.000e+00
   O2              0.000e+00   0.000e+00   -64.241   -64.235     0.006     30.30

------------------------------Saturation indices-------------------------------

	Phase               SI   log IAP   log K(297 K,  10 atm)

	Aragonite        -0.14     -8.46   -8.32  CaCO3
	Calcite          -0.00     -8.46   -8.46  CaCO3
	CH4(g)          -17.52    -20.35   -2.83  CH4
	CO2(g)            0.96     -0.48   -1.44  CO2	 Pressure   9.9 atm, phi 0.945.
	H2(g)           -11.15    -14.25   -3.10  H2
	H2O(g)           -1.53     -0.00    1.53  H2O	 Pressure   0.0 atm, phi 0.907.
	O2(g)           -61.34    -64.23   -2.89  O2


Reaction step 6.

Using solution 1.	
Using pure phase assemblage 1.	
Using gas phase 1.	
Using temperature 1.	

-----------------------------------Gas phase-----------------------------------

Total pressure:  9.91      atmospheres          (Peng-Robinson calculation)
    Gas volume:   1.00e-01 liters
  Molar volume:   2.37e+00 liters/mole
   P * Vm / RT:  0.94605  (Compressibility Factor Z) 

                                                        Moles in gas
                                            ----------------------------------
Component         log P           P    phi     Initial       Final       Delta

CO2(g)             0.99   9.865e+00  0.948   0.000e+00   4.196e-02   4.196e-02
H2O(g)            -1.34   4.528e-02  0.912   0.000e+00   1.926e-04   1.926e-04

-------------------------------Phase assemblage--------------------------------

                                                      Moles in assemblage
Phase               SI  log IAP  log K(T, P)   Initial       Final       Delta

CO2(g)            0.96    -0.54     -1.51    1.000e+01   9.658e+00  -3.422e-01
Calcite          -0.00    -8.50     -8.50    1.000e+01   9.981e+00  -1.884e-02

-----------------------------Solution composition------------------------------

	Elements           Molality       Moles

	C                 3.192e-01   3.191e-01
	Ca                1.885e-02   1.884e-02

----------------------------Description of solution----------------------------

                                       pH  =   5.364      Charge balance
                                       pe  =   0.170      Adjusted to redox equilibrium
       Specific Conductance (uS/cm, 29 oC) = 3429
                          Density (g/cm3)  =   1.00271
                               Volume (L)  =   1.02796
                        Activity of water  =   0.994
                           Ionic strength  =   5.653e-02
                       Mass of water (kg)  =   9.997e-01
                 Total alkalinity (eq/kg)  =   3.769e-02
                       Total CO2 (mol/kg)  =   3.192e-01
                      Temperature (deg C)  =  29.68
                           Pressure (atm)  =  9.91
                  Electrical balance (eq)  =   1.811e-10
 Percent error, 100*(Cat-|An|)/(Cat+|An|)  =   0.00
                               Iterations  =  44
                                  Total H  = 1.110120e+02
                                  Total O  = 5.616309e+01

----------------------------Distribution of species----------------------------

                                               Log       Log       Log    mole V
   Species          Molality    Activity  Molality  Activity     Gamma   cm3/mol

   H+              5.105e-06   4.328e-06    -5.292    -5.364    -0.072      0.00
   OH-             4.142e-09   3.321e-09    -8.383    -8.479    -0.096     -3.67
   H2O             5.551e+01   9.943e-01     1.744    -0.003     0.000     18.09
C(-4)         8.647e-22
   CH4             8.647e-22   8.761e-22   -21.063   -21.057     0.006     32.22
C(4)          3.192e-01
   CO2             2.815e-01   2.852e-01    -0.550    -0.545     0.006     29.13
   HCO3-           3.769e-02   3.092e-02    -1.424    -1.510    -0.086     25.32
   CaCO3           5.806e-06   5.882e-06    -5.236    -5.230     0.006    -14.52
   CO3-2           8.159e-07   3.699e-07    -6.088    -6.432    -0.344     -2.97
   CaHCO3+         0.000e+00   0.000e+00  -113.772  -113.862    -0.090     (0)  
Ca            1.885e-02
   Ca+2            1.884e-02   8.573e-03    -1.725    -2.067    -0.342    -17.47
   CaCO3           5.806e-06   5.882e-06    -5.236    -5.230     0.006    -14.52
   CaOH+           4.021e-10   3.268e-10    -9.396    -9.486    -0.090     (0)  
   CaHCO3+         0.000e+00   0.000e+00  -113.772  -113.862    -0.090     (0)  
H(0)          1.131e-14
   H2              5.653e-15   5.727e-15   -14.248   -14.242     0.006     28.60
O(0)          0.000e+00
   O2              0.000e+00   0.000e+00   -62.426   -62.421     0.006     30.73

------------------------------Saturation indices-------------------------------

	Phase               SI   log IAP   log K(302 K,  10 atm)

	Aragonite        -0.14     -8.50   -8.36  CaCO3
	Calcite          -0.00     -8.50   -8.50  CaCO3
	CH4(g)          -18.19    -21.06   -2.87  CH4
	CO2(g)            0.96     -0.54   -1.51  CO2	 Pressure   9.9 atm, phi 0.948.
	H2(g)           -11.13    -14.24   -3.11  H2
	H2O(g)           -1.38     -0.00    1.38  H2O	 Pressure   0.0 atm, phi 0.912.
	O2(g)           -59.49    -62.42   -2.93  O2


Reaction step 7.

Using solution 1.	
Using pure phase assemblage 1.	
Using gas phase 1.	
Using temperature 1.	

-----------------------------------Gas phase-----------------------------------

Total pressure:  9.93      atmospheres          (Peng-Robinson calculation)
    Gas volume:   1.00e-01 liters
  Molar volume:   2.42e+00 liters/mole
   P * Vm / RT:  0.94905  (Compressibility Factor Z) 

                                                        Moles in gas
                                            ----------------------------------
Component         log P           P    phi     Initial       Final       Delta

CO2(g)             0.99   9.866e+00  0.951   0.000e+00   4.106e-02   4.106e-02
H2O(g)            -1.21   6.218e-02  0.915   0.000e+00   2.588e-04   2.588e-04

-------------------------------Phase assemblage--------------------------------

                                                      Moles in assemblage
Phase               SI  log IAP  log K(T, P)   Initial       Final       Delta

CO2(g)            0.96    -0.60     -1.57    1.000e+01   9.694e+00  -3.057e-01
Calcite          -0.00    -8.54     -8.54    1.000e+01   9.983e+00  -1.709e-02

-----------------------------Solution composition------------------------------

	Elements           Molality       Moles

	C                 2.818e-01   2.817e-01
	Ca                1.710e-02   1.709e-02

----------------------------Description of solution----------------------------

                                       pH  =   5.359      Charge balance
                                       pe  =   0.175      Adjusted to redox equilibrium
       Specific Conductance (uS/cm, 35 oC) = 3521
                          Density (g/cm3)  =   1.00042
                               Volume (L)  =   1.02673
                        Activity of water  =   0.995
                           Ionic strength  =   5.128e-02
                       Mass of water (kg)  =   9.997e-01
                 Total alkalinity (eq/kg)  =   3.419e-02
                       Total CO2 (mol/kg)  =   2.818e-01
                      Temperature (deg C)  =  35.42
                           Pressure (atm)  =  9.93
                  Electrical balance (eq)  =   2.042e-10
 Percent error, 100*(Cat-|An|)/(Cat+|An|)  =   0.00
                               Iterations  =  43
                                  Total H  = 1.110119e+02
                                  Total O  = 5.608647e+01

----------------------------Distribution of species----------------------------

                                               Log       Log       Log    mole V
   Species          Molality    Activity  Molality  Activity     Gamma   cm3/mol

   H+              5.143e-06   4.374e-06    -5.289    -5.359    -0.070      0.00
   OH-             6.115e-09   4.934e-09    -8.214    -8.307    -0.093     -3.57
   H2O             5.551e+01   9.949e-01     1.744    -0.002     0.000     18.12
C(-4)         1.328e-22
   CH4             1.328e-22   1.344e-22   -21.877   -21.872     0.005     32.22
C(4)          2.818e-01
   CO2             2.476e-01   2.505e-01    -0.606    -0.601     0.005     27.91
   HCO3-           3.418e-02   2.819e-02    -1.466    -1.550    -0.084     25.60
   CaCO3           6.131e-06   6.204e-06    -5.212    -5.207     0.005    -14.51
   CO3-2           7.927e-07   3.664e-07    -6.101    -6.436    -0.335     -2.64
   CaHCO3+         0.000e+00   0.000e+00  -113.808  -113.896    -0.088     (0)  
Ca            1.710e-02
   Ca+2            1.709e-02   7.921e-03    -1.767    -2.101    -0.334    -17.46
   CaCO3           6.131e-06   6.204e-06    -5.212    -5.207     0.005    -14.51
   CaOH+           3.661e-10   2.990e-10    -9.436    -9.524    -0.088     (0)  
   CaHCO3+         0.000e+00   0.000e+00  -113.808  -113.896    -0.088     (0)  
H(0)          1.072e-14
   H2              5.362e-15   5.426e-15   -14.271   -14.266     0.005     28.59
O(0)          0.000e+00
   O2              0.000e+00   0.000e+00   -60.617   -60.612     0.005     31.11

------------------------------Saturation indices-------------------------------

	Phase               SI   log IAP   log K(308 K,  10 atm)

	Aragonite        -0.14     -8.54   -8.40  CaCO3
	Calcite          -0.00     -8.54   -8.54  CaCO3
	CH4(g)          -18.97    -21.87   -2.91  CH4
	CO2(g)            0.96     -0.60   -1.57  CO2	 Pressure   9.9 atm, phi 0.951.
	H2(g)           -11.14    -14.27   -3.12  H2
	H2O(g)           -1.24     -0.00    1.24  H2O	 Pressure   0.1 atm, phi 0.915.
	O2(g)           -57.65    -60.61   -2.97  O2


Reaction step 8.

Using solution 1.	
Using pure phase assemblage 1.	
Using gas phase 1.	
Using temperature 1.	

-----------------------------------Gas phase-----------------------------------

Total pressure:  9.95      atmospheres          (Peng-Robinson calculation)
    Gas volume:   1.00e-01 liters
  Molar volume:   2.47e+00 liters/mole
   P * Vm / RT:  0.95180  (Compressibility Factor Z) 

                                                        Moles in gas
                                            ----------------------------------
Component         log P           P    phi     Initial       Final       Delta

CO2(g)             0.99   9.867e+00  0.954   0.000e+00   4.019e-02   4.019e-02
H2O(g)            -1.07   8.431e-02  0.919   0.000e+00   3.434e-04   3.434e-04

-------------------------------Phase assemblage--------------------------------

                                                      Moles in assemblage
Phase               SI  log IAP  log K(T, P)   Initial       Final       Delta

CO2(g)            0.97    -0.65     -1.62    1.000e+01   9.724e+00  -2.758e-01
Calcite          -0.00    -8.58     -8.58    1.000e+01   9.984e+00  -1.551e-02

-----------------------------Solution composition------------------------------

	Elements           Molality       Moles

	C                 2.512e-01   2.511e-01
	Ca                1.551e-02   1.551e-02

----------------------------Description of solution----------------------------

                                       pH  =   5.357      Charge balance
                                       pe  =   0.171      Adjusted to redox equilibrium
       Specific Conductance (uS/cm, 41 oC) = 3586
                          Density (g/cm3)  =   0.99789
                               Volume (L)  =   1.02639
                        Activity of water  =   0.995
                           Ionic strength  =   4.653e-02
                       Mass of water (kg)  =   9.997e-01
                 Total alkalinity (eq/kg)  =   3.103e-02
                       Total CO2 (mol/kg)  =   2.512e-01
                      Temperature (deg C)  =  41.16
                           Pressure (atm)  =  9.95
                  Electrical balance (eq)  =   2.347e-10
 Percent error, 100*(Cat-|An|)/(Cat+|An|)  =   0.00
                               Iterations  =  42
                                  Total H  = 1.110117e+02
                                  Total O  = 5.602356e+01

----------------------------Distribution of species----------------------------

                                               Log       Log       Log    mole V
   Species          Molality    Activity  Molality  Activity     Gamma   cm3/mol

   H+              5.155e-06   4.398e-06    -5.288    -5.357    -0.069      0.00
   OH-             8.872e-09   7.202e-09    -8.052    -8.143    -0.091     -3.53
   H2O             5.551e+01   9.955e-01     1.744    -0.002     0.000     18.16
C(-4)         2.395e-23
   CH4             2.395e-23   2.420e-23   -22.621   -22.616     0.005     32.22
C(4)          2.512e-01
   CO2             2.201e-01   2.225e-01    -0.657    -0.653     0.005     26.84
   HCO3-           3.102e-02   2.570e-02    -1.508    -1.590    -0.082     25.80
   CaCO3           6.508e-06   6.578e-06    -5.187    -5.182     0.005    -14.49
   CO3-2           7.629e-07   3.594e-07    -6.118    -6.444    -0.327     -2.47
   CaHCO3+         0.000e+00   0.000e+00  -113.851  -113.937    -0.086     (0)  
Ca            1.551e-02
   Ca+2            1.551e-02   7.318e-03    -1.809    -2.136    -0.326    -17.48
   CaCO3           6.508e-06   6.578e-06    -5.187    -5.182     0.005    -14.49
   CaOH+           3.350e-10   2.749e-10    -9.475    -9.561    -0.086     (0)  
   CaHCO3+         0.000e+00   0.000e+00  -113.851  -113.937    -0.086     (0)  
H(0)          1.048e-14
   H2              5.240e-15   5.296e-15   -14.281   -14.276     0.005     28.59
O(0)          0.000e+00
   O2              0.000e+00   0.000e+00   -58.898   -58.893     0.005     31.45

------------------------------Saturation indices-------------------------------

	Phase               SI   log IAP   log K(314 K,  10 atm)

	Aragonite        -0.13     -8.58   -8.45  CaCO3
	Calcite          -0.00     -8.58   -8.58  CaCO3
	CH4(g)          -19.68    -22.62   -2.94  CH4
	CO2(g)            0.97     -0.65   -1.62  CO2	 Pressure   9.9 atm, phi 0.954.
	H2(g)           -11.15    -14.28   -3.13  H2
	H2O(g)           -1.11     -0.00    1.11  H2O	 Pressure   0.1 atm, phi 0.919.
	O2(g)           -55.90    -58.89   -3.00  O2


Reaction step 9.

Using solution 1.	
Using pure phase assemblage 1.	
Using gas phase 1.	
Using temperature 1.	

-----------------------------------Gas phase-----------------------------------

Total pressure:  9.98      atmospheres          (Peng-Robinson calculation)
    Gas volume:   1.00e-01 liters
  Molar volume:   2.51e+00 liters/mole
   P * Vm / RT:  0.95432  (Compressibility Factor Z) 

                                                        Moles in gas
                                            ----------------------------------
Component         log P           P    phi     Initial       Final       Delta

CO2(g)             0.99   9.868e+00  0.956   0.000e+00   3.937e-02   3.937e-02
H2O(g)            -0.95   1.129e-01  0.922   0.000e+00   4.506e-04   4.506e-04

-------------------------------Phase assemblage--------------------------------

                                                      Moles in assemblage
Phase               SI  log IAP  log K(T, P)   Initial       Final       Delta

CO2(g)            0.97    -0.70     -1.67    1.000e+01   9.749e+00  -2.511e-01
Calcite           0.00    -8.63     -8.63    1.000e+01   9.986e+00  -1.408e-02

-----------------------------Solution composition------------------------------

	Elements           Molality       Moles

	C                 2.258e-01   2.258e-01
	Ca                1.408e-02   1.408e-02

----------------------------Description of solution----------------------------

                                       pH  =   5.356      Charge balance
                                       pe  =   0.155      Adjusted to redox equilibrium
       Specific Conductance (uS/cm, 46 oC) = 3627
                          Density (g/cm3)  =   0.99514
                               Volume (L)  =   1.02677
                        Activity of water  =   0.996
                           Ionic strength  =   4.222e-02
                       Mass of water (kg)  =   9.997e-01
                 Total alkalinity (eq/kg)  =   2.816e-02
                       Total CO2 (mol/kg)  =   2.258e-01
                      Temperature (deg C)  =  46.89
                           Pressure (atm)  =  9.98
                  Electrical balance (eq)  =   2.728e-10
 Percent error, 100*(Cat-|An|)/(Cat+|An|)  =   0.00
                               Iterations  =  41
                                  Total H  = 1.110115e+02
                                  Total O  = 5.597137e+01

----------------------------Distribution of species----------------------------

                                               Log       Log       Log    mole V
   Species          Molality    Activity  Molality  Activity     Gamma   cm3/mol

   H+              5.145e-06   4.404e-06    -5.289    -5.356    -0.068      0.00
   OH-             1.266e-08   1.034e-08    -7.898    -7.986    -0.088     -3.54
   H2O             5.551e+01   9.959e-01     1.744    -0.002     0.000     18.20
C(-4)         5.469e-24
   CH4             5.469e-24   5.523e-24   -23.262   -23.258     0.004     32.22
C(4)          2.258e-01
   CO2             1.977e-01   1.996e-01    -0.704    -0.700     0.004     25.92
   HCO3-           2.815e-02   2.343e-02    -1.551    -1.630    -0.080     25.94
   CaCO3           6.917e-06   6.985e-06    -5.160    -5.156     0.004    -14.48
   CO3-2           7.275e-07   3.491e-07    -6.138    -6.457    -0.319     -2.45
   CaHCO3+         0.000e+00   0.000e+00  -113.900  -113.983    -0.084     (0)  
Ca            1.408e-02
   Ca+2            1.407e-02   6.760e-03    -1.852    -2.170    -0.318    -17.52
   CaCO3           6.917e-06   6.985e-06    -5.160    -5.156     0.004    -14.48
   CaOH+           3.077e-10   2.537e-10    -9.512    -9.596    -0.084     (0)  
   CaHCO3+         0.000e+00   0.000e+00  -113.900  -113.983    -0.084     (0)  
H(0)          1.076e-14
   H2              5.378e-15   5.431e-15   -14.269   -14.265     0.004     28.58
O(0)          0.000e+00
   O2              0.000e+00   0.000e+00   -57.283   -57.279     0.004     31.75

------------------------------Saturation indices-------------------------------

	Phase               SI   log IAP   log K(320 K,  10 atm)

	Aragonite        -0.13     -8.63   -8.50  CaCO3
	Calcite          -0.00     -8.63   -8.63  CaCO3
	CH4(g)          -20.29    -23.26   -2.97  CH4
	CO2(g)            0.97     -0.70   -1.67  CO2	 Pressure   9.9 atm, phi 0.956.
	H2(g)           -11.13    -14.27   -3.13  H2
	H2O(g)           -0.98     -0.00    0.98  H2O	 Pressure   0.1 atm, phi 0.922.
	O2(g)           -54.26    -57.28   -3.02  O2


Reaction step 10.

Using solution 1.	
Using pure phase assemblage 1.	
Using gas phase 1.	
Using temperature 1.	

-----------------------------------Gas phase-----------------------------------

Total pressure: 10.02      atmospheres          (Peng-Robinson calculation)
    Gas volume:   1.00e-01 liters
  Molar volume:   2.55e+00 liters/mole
   P * Vm / RT:  0.95660  (Compressibility Factor Z) 

                                                        Moles in gas
                                            ----------------------------------
Component         log P           P    phi     Initial       Final       Delta

CO2(g)             0.99   9.869e+00  0.958   0.000e+00   3.859e-02   3.859e-02
H2O(g)            -0.83   1.496e-01  0.925   0.000e+00   5.849e-04   5.849e-04

-------------------------------Phase assemblage--------------------------------

                                                      Moles in assemblage
Phase               SI  log IAP  log K(T, P)   Initial       Final       Delta

CO2(g)            0.97    -0.74     -1.71    1.000e+01   9.770e+00  -2.304e-01
Calcite           0.00    -8.68     -8.68    1.000e+01   9.987e+00  -1.278e-02

-----------------------------Solution composition------------------------------

	Elements           Molality       Moles

	C                 2.047e-01   2.046e-01
	Ca                1.278e-02   1.278e-02

----------------------------Description of solution----------------------------

                                       pH  =   5.357      Charge balance
                                       pe  =   0.155      Adjusted to redox equilibrium
       Specific Conductance (uS/cm, 52 oC) = 3644
                          Density (g/cm3)  =   0.99220
                               Volume (L)  =   1.02775
                        Activity of water  =   0.996
                           Ionic strength  =   3.832e-02
                       Mass of water (kg)  =   9.998e-01
                 Total alkalinity (eq/kg)  =   2.556e-02
                       Total CO2 (mol/kg)  =   2.047e-01
                      Temperature (deg C)  =  52.63
                           Pressure (atm)  = 10.02
                  Electrical balance (eq)  =   3.197e-10
 Percent error, 100*(Cat-|An|)/(Cat+|An|)  =   0.00
                               Iterations  =  40
                                  Total H  = 1.110113e+02
                                  Total O  = 5.592767e+01

----------------------------Distribution of species----------------------------

                                               Log       Log       Log    mole V
   Species          Molality    Activity  Molality  Activity     Gamma   cm3/mol

   H+              5.117e-06   4.393e-06    -5.291    -5.357    -0.066      0.00
   OH-             1.778e-08   1.460e-08    -7.750    -7.836    -0.086     -3.60
   H2O             5.551e+01   9.963e-01     1.744    -0.002     0.000     18.25
C(-4)         9.515e-25
   CH4             9.515e-25   9.600e-25   -24.022   -24.018     0.004     32.22
C(4)          2.047e-01
   CO2             1.791e-01   1.807e-01    -0.747    -0.743     0.004     25.10
   HCO3-           2.555e-02   2.136e-02    -1.593    -1.670    -0.078     26.02
   CaCO3           7.339e-06   7.404e-06    -5.134    -5.131     0.004    -14.47
   CO3-2           6.875e-07   3.359e-07    -6.163    -6.474    -0.311     -2.57
   CaHCO3+         0.000e+00   0.000e+00  -113.954  -114.036    -0.082     (0)  
Ca            1.278e-02
   Ca+2            1.277e-02   6.243e-03    -1.894    -2.205    -0.311    -17.59
   CaCO3           7.339e-06   7.404e-06    -5.134    -5.131     0.004    -14.47
   CaOH+           2.836e-10   2.350e-10    -9.547    -9.629    -0.082     (0)  
   CaHCO3+         0.000e+00   0.000e+00  -113.954  -114.036    -0.082     (0)  
H(0)          1.022e-14
   H2              5.108e-15   5.153e-15   -14.292   -14.288     0.004     28.58
O(0)          0.000e+00
   O2              0.000e+00   0.000e+00   -55.658   -55.654     0.004     32.03

------------------------------Saturation indices-------------------------------

	Phase               SI   log IAP   log K(325 K,  10 atm)

	Aragonite        -0.13     -8.68   -8.55  CaCO3
	Calcite          -0.00     -8.68   -8.68  CaCO3
	CH4(g)          -21.03    -24.02   -2.99  CH4
	CO2(g)            0.97     -0.74   -1.71  CO2	 Pressure   9.9 atm, phi 0.958.
	H2(g)           -11.15    -14.29   -3.14  H2
	H2O(g)           -0.86     -0.00    0.86  H2O	 Pressure   0.1 atm, phi 0.925.
	O2(g)           -52.61    -55.65   -3.05  O2


Reaction step 11.

Using solution 1.	
Using pure phase assemblage 1.	
Using gas phase 1.	
Using temperature 1.	

-----------------------------------Gas phase-----------------------------------

Total pressure: 10.07      atmospheres          (Peng-Robinson calculation)
    Gas volume:   1.00e-01 liters
  Molar volume:   2.59e+00 liters/mole
   P * Vm / RT:  0.95867  (Compressibility Factor Z) 

                                                        Moles in gas
                                            ----------------------------------
Component         log P           P    phi     Initial       Final       Delta

CO2(g)             0.99   9.871e+00  0.960   0.000e+00   3.785e-02   3.785e-02
H2O(g)            -0.71   1.960e-01  0.928   0.000e+00   7.514e-04   7.514e-04

-------------------------------Phase assemblage--------------------------------

                                                      Moles in assemblage
Phase               SI  log IAP  log K(T, P)   Initial       Final       Delta

CO2(g)            0.97    -0.78     -1.75    1.000e+01   9.787e+00  -2.131e-01
Calcite           0.00    -8.73     -8.73    1.000e+01   9.988e+00  -1.160e-02

-----------------------------Solution composition------------------------------

	Elements           Molality       Moles

	C                 1.869e-01   1.868e-01
	Ca                1.160e-02   1.160e-02

----------------------------Description of solution----------------------------

                                       pH  =   5.360      Charge balance
                                       pe  =   0.145      Adjusted to redox equilibrium
       Specific Conductance (uS/cm, 58 oC) = 3639
                          Density (g/cm3)  =   0.98909
                               Volume (L)  =   1.02925
                        Activity of water  =   0.997
                           Ionic strength  =   3.478e-02
                       Mass of water (kg)  =   9.998e-01
                 Total alkalinity (eq/kg)  =   2.320e-02
                       Total CO2 (mol/kg)  =   1.869e-01
                      Temperature (deg C)  =  58.37
                           Pressure (atm)  = 10.07
                  Electrical balance (eq)  =   2.034e-10
 Percent error, 100*(Cat-|An|)/(Cat+|An|)  =   0.00
                               Iterations  =  40
                                  Total H  = 1.110109e+02
                                  Total O  = 5.589076e+01

----------------------------Distribution of species----------------------------

                                               Log       Log       Log    mole V
   Species          Molality    Activity  Molality  Activity     Gamma   cm3/mol

   H+              5.075e-06   4.370e-06    -5.295    -5.360    -0.065      0.00
   OH-             2.458e-08   2.029e-08    -7.609    -7.693    -0.083     -3.70
   H2O             5.551e+01   9.966e-01     1.744    -0.001     0.000     18.30
C(-4)         2.034e-25
   CH4             2.034e-25   2.050e-25   -24.692   -24.688     0.003     32.22
C(4)          1.869e-01
   CO2             1.637e-01   1.650e-01    -0.786    -0.782     0.003     24.37
   HCO3-           2.319e-02   1.947e-02    -1.635    -1.711    -0.076     26.04
   CaCO3           7.750e-06   7.812e-06    -5.111    -5.107     0.003    -14.46
   CO3-2           6.440e-07   3.202e-07    -6.191    -6.495    -0.303     -2.81
   CaHCO3+         0.000e+00   0.000e+00  -114.014  -114.094    -0.080     (0)  
Ca            1.160e-02
   Ca+2            1.159e-02   5.763e-03    -1.936    -2.239    -0.304    -17.69
   CaCO3           7.750e-06   7.812e-06    -5.111    -5.107     0.003    -14.46
   CaOH+           2.621e-10   2.181e-10    -9.581    -9.661    -0.080     (0)  
   CaHCO3+         0.000e+00   0.000e+00  -114.014  -114.094    -0.080     (0)  
H(0)          1.012e-14
   H2              5.061e-15   5.101e-15   -14.296   -14.292     0.003     28.58
O(0)          0.000e+00
   O2              0.000e+00   0.000e+00   -54.125   -54.121     0.003     32.29

------------------------------Saturation indices-------------------------------

	Phase               SI   log IAP   log K(331 K,  10 atm)

	Aragonite        -0.12     -8.73   -8.61  CaCO3
	Calcite          -0.00     -8.73   -8.73  CaCO3
	CH4(g)          -21.68    -24.69   -3.01  CH4
	CO2(g)            0.97     -0.78   -1.75  CO2	 Pressure   9.9 atm, phi 0.960.
	H2(g)           -11.15    -14.29   -3.14  H2
	H2O(g)           -0.74     -0.00    0.74  H2O	 Pressure   0.2 atm, phi 0.928.
	O2(g)           -51.06    -54.12   -3.06  O2


Reaction step 12.

Using solution 1.	
Using pure phase assemblage 1.	
Using gas phase 1.	
Using temperature 1.	

-----------------------------------Gas phase-----------------------------------

Total pressure: 10.13      atmospheres          (Peng-Robinson calculation)
    Gas volume:   1.00e-01 liters
  Molar volume:   2.63e+00 liters/mole
   P * Vm / RT:  0.96053  (Compressibility Factor Z) 

                                                        Moles in gas
                                            ----------------------------------
Component         log P           P    phi     Initial       Final       Delta

CO2(g)             0.99   9.872e+00  0.962   0.000e+00   3.714e-02   3.714e-02
H2O(g)            -0.59   2.542e-01  0.930   0.000e+00   9.562e-04   9.562e-04

-------------------------------Phase assemblage--------------------------------

                                                      Moles in assemblage
Phase               SI  log IAP  log K(T, P)   Initial       Final       Delta

CO2(g)            0.97    -0.82     -1.79    1.000e+01   9.802e+00  -1.984e-01
Calcite           0.00    -8.79     -8.79    1.000e+01   9.989e+00  -1.053e-02

-----------------------------Solution composition------------------------------

	Elements           Molality       Moles

	C                 1.718e-01   1.718e-01
	Ca                1.053e-02   1.053e-02

----------------------------Description of solution----------------------------

                                       pH  =   5.363      Charge balance
                                       pe  =   0.122      Adjusted to redox equilibrium
       Specific Conductance (uS/cm, 64 oC) = 3615
                          Density (g/cm3)  =   0.98581
                               Volume (L)  =   1.03118
                        Activity of water  =   0.997
                           Ionic strength  =   3.157e-02
                       Mass of water (kg)  =   9.998e-01
                 Total alkalinity (eq/kg)  =   2.106e-02
                       Total CO2 (mol/kg)  =   1.718e-01
                      Temperature (deg C)  =  64.11
                           Pressure (atm)  = 10.13
                  Electrical balance (eq)  =   2.234e-10
 Percent error, 100*(Cat-|An|)/(Cat+|An|)  =   0.00
                               Iterations  =  39
                                  Total H  = 1.110105e+02
                                  Total O  = 5.585936e+01

----------------------------Distribution of species----------------------------

                                               Log       Log       Log    mole V
   Species          Molality    Activity  Molality  Activity     Gamma   cm3/mol

   H+              5.021e-06   4.336e-06    -5.299    -5.363    -0.064      0.00
   OH-             3.349e-08   2.779e-08    -7.475    -7.556    -0.081     -3.85
   H2O             5.551e+01   9.969e-01     1.744    -0.001     0.000     18.36
C(-4)         5.625e-26
   CH4             5.625e-26   5.666e-26   -25.250   -25.247     0.003     32.22
C(4)          1.718e-01
   CO2             1.508e-01   1.519e-01    -0.822    -0.819     0.003     23.72
   HCO3-           2.104e-02   1.775e-02    -1.677    -1.751    -0.074     26.02
   CaCO3           8.123e-06   8.182e-06    -5.090    -5.087     0.003    -14.45
   CO3-2           5.979e-07   3.024e-07    -6.223    -6.519    -0.296     -3.17
   CaHCO3+         0.000e+00   0.000e+00  -114.079  -114.157    -0.078     (0)  
Ca            1.053e-02
   Ca+2            1.052e-02   5.318e-03    -1.978    -2.274    -0.296    -17.81
   CaCO3           8.123e-06   8.182e-06    -5.090    -5.087     0.003    -14.45
   CaOH+           2.428e-10   2.029e-10    -9.615    -9.693    -0.078     (0)  
   CaHCO3+         0.000e+00   0.000e+00  -114.079  -114.157    -0.078     (0)  
H(0)          1.060e-14
   H2              5.300e-15   5.339e-15   -14.276   -14.273     0.003     28.58
O(0)          0.000e+00
   O2              0.000e+00   0.000e+00   -52.691   -52.688     0.003     32.53

------------------------------Saturation indices-------------------------------

	Phase               SI   log IAP   log K(337 K,  10 atm)

	Aragonite        -0.12     -8.79   -8.68  CaCO3
	Calcite          -0.00     -8.79   -8.79  CaCO3
	CH4(g)          -22.22    -25.25   -3.03  CH4
	CO2(g)            0.97     -0.82   -1.79  CO2	 Pressure   9.9 atm, phi 0.962.
	H2(g)           -11.13    -14.27   -3.14  H2
	H2O(g)           -0.63     -0.00    0.62  H2O	 Pressure   0.3 atm, phi 0.930.
	O2(g)           -49.61    -52.69   -3.08  O2


Reaction step 13.

Using solution 1.	
Using pure phase assemblage 1.	
Using gas phase 1.	
Using temperature 1.	

-----------------------------------Gas phase-----------------------------------

Total pressure: 10.20      atmospheres          (Peng-Robinson calculation)
    Gas volume:   1.00e-01 liters
  Molar volume:   2.65e+00 liters/mole
   P * Vm / RT:  0.96218  (Compressibility Factor Z) 

                                                        Moles in gas
                                            ----------------------------------
Component         log P           P    phi     Initial       Final       Delta

CO2(g)             0.99   9.874e+00  0.964   0.000e+00   3.646e-02   3.646e-02
H2O(g)            -0.49   3.265e-01  0.932   0.000e+00   1.206e-03   1.206e-03

-------------------------------Phase assemblage--------------------------------

                                                      Moles in assemblage
Phase               SI  log IAP  log K(T, P)   Initial       Final       Delta

CO2(g)            0.97    -0.85     -1.82    1.000e+01   9.814e+00  -1.859e-01
Calcite           0.00    -8.86     -8.86    1.000e+01   9.990e+00  -9.552e-03

-----------------------------Solution composition------------------------------

	Elements           Molality       Moles

	C                 1.590e-01   1.589e-01
	Ca                9.554e-03   9.552e-03

----------------------------Description of solution----------------------------

                                       pH  =   5.367      Charge balance
                                       pe  =   0.113      Adjusted to redox equilibrium
       Specific Conductance (uS/cm, 69 oC) = 3572
                          Density (g/cm3)  =   0.98238
                               Volume (L)  =   1.03351
                        Activity of water  =   0.997
                           Ionic strength  =   2.864e-02
                       Mass of water (kg)  =   9.998e-01
                 Total alkalinity (eq/kg)  =   1.911e-02
                       Total CO2 (mol/kg)  =   1.590e-01
                      Temperature (deg C)  =  69.84
                           Pressure (atm)  = 10.20
                  Electrical balance (eq)  =   1.619e-10
 Percent error, 100*(Cat-|An|)/(Cat+|An|)  =   0.00
                               Iterations  =  39
                                  Total H  = 1.110100e+02
                                  Total O  = 5.583246e+01

----------------------------Distribution of species----------------------------

                                               Log       Log       Log    mole V
   Species          Molality    Activity  Molality  Activity     Gamma   cm3/mol

   H+              4.957e-06   4.293e-06    -5.305    -5.367    -0.062      0.00
   OH-             4.496e-08   3.751e-08    -7.347    -7.426    -0.079     -4.04
   H2O             5.551e+01   9.971e-01     1.744    -0.001     0.000     18.42
C(-4)         1.223e-26
   CH4             1.223e-26   1.231e-26   -25.912   -25.910     0.003     32.22
C(4)          1.590e-01
   CO2             1.399e-01   1.408e-01    -0.854    -0.851     0.003     23.13
   HCO3-           1.909e-02   1.617e-02    -1.719    -1.791    -0.072     25.95
   CaCO3           8.431e-06   8.487e-06    -5.074    -5.071     0.003    -14.43
   CO3-2           5.504e-07   2.831e-07    -6.259    -6.548    -0.289     -3.65
   CaHCO3+         0.000e+00   0.000e+00  -114.149  -114.225    -0.076     (0)  
Ca            9.554e-03
   Ca+2            9.545e-03   4.905e-03    -2.020    -2.309    -0.289    -17.95
   CaCO3           8.431e-06   8.487e-06    -5.074    -5.071     0.003    -14.43
   CaOH+           2.252e-10   1.891e-10    -9.647    -9.723    -0.076     (0)  
   CaHCO3+         0.000e+00   0.000e+00  -114.149  -114.225    -0.076     (0)  
H(0)          1.037e-14
   H2              5.183e-15   5.218e-15   -14.285   -14.283     0.003     28.57
O(0)          0.000e+00
   O2              0.000e+00   0.000e+00   -51.248   -51.245     0.003     32.76

------------------------------Saturation indices-------------------------------

	Phase               SI   log IAP   log K(342 K,  10 atm)

	Aragonite        -0.12     -8.86   -8.74  CaCO3
	Calcite          -0.00     -8.86   -8.86  CaCO3
	CH4(g)          -22.87    -25.91   -3.04  CH4
	CO2(g)            0.97     -0.85   -1.82  CO2	 Pressure   9.9 atm, phi 0.964.
	H2(g)           -11.15    -14.28   -3.14  H2
	H2O(g)           -0.52     -0.00    0.52  H2O	 Pressure   0.3 atm, phi 0.932.
	O2(g)           -48.15    -51.25   -3.09  O2


Reaction step 14.

Using solution 1.	
Using pure phase assemblage 1.	
Using gas phase 1.	
Using temperature 1.	

-----------------------------------Gas phase-----------------------------------

Total pressure: 10.29      atmospheres          (Peng-Robinson calculation)
    Gas volume:   1.00e-01 liters
  Molar volume:   2.68e+00 liters/mole
   P * Vm / RT:  0.96362  (Compressibility Factor Z) 

                                                        Moles in gas
                                            ----------------------------------
Component         log P           P    phi     Initial       Final       Delta

CO2(g)             0.99   9.877e+00  0.966   0.000e+00   3.582e-02   3.582e-02
H2O(g)            -0.38   4.156e-01  0.934   0.000e+00   1.507e-03   1.507e-03

-------------------------------Phase assemblage--------------------------------

                                                      Moles in assemblage
Phase               SI  log IAP  log K(T, P)   Initial       Final       Delta

CO2(g)            0.97    -0.88     -1.85    1.000e+01   9.825e+00  -1.751e-01
Calcite           0.00    -8.93     -8.93    1.000e+01   9.991e+00  -8.665e-03

-----------------------------Solution composition------------------------------

	Elements           Molality       Moles

	C                 1.480e-01   1.479e-01
	Ca                8.667e-03   8.665e-03

----------------------------Description of solution----------------------------

                                       pH  =   5.372      Charge balance
                                       pe  =   0.091      Adjusted to redox equilibrium
       Specific Conductance (uS/cm, 75 oC) = 3514
                          Density (g/cm3)  =   0.97879
                               Volume (L)  =   1.03620
                        Activity of water  =   0.997
                           Ionic strength  =   2.598e-02
                       Mass of water (kg)  =   9.998e-01
                 Total alkalinity (eq/kg)  =   1.733e-02
                       Total CO2 (mol/kg)  =   1.480e-01
                      Temperature (deg C)  =  75.58
                           Pressure (atm)  = 10.29
                  Electrical balance (eq)  =   2.398e-10
 Percent error, 100*(Cat-|An|)/(Cat+|An|)  =   0.00
                               Iterations  =  38
                                  Total H  = 1.110094e+02
                                  Total O  = 5.580927e+01

----------------------------Distribution of species----------------------------

                                               Log       Log       Log    mole V
   Species          Molality    Activity  Molality  Activity     Gamma   cm3/mol

   H+              4.886e-06   4.244e-06    -5.311    -5.372    -0.061      0.00
   OH-             5.953e-08   4.991e-08    -7.225    -7.302    -0.077     -4.27
   H2O             5.551e+01   9.973e-01     1.744    -0.001     0.000     18.48
C(-4)         3.473e-27
   CH4             3.473e-27   3.493e-27   -26.459   -26.457     0.003     32.22
C(4)          1.480e-01
   CO2             1.306e-01   1.314e-01    -0.884    -0.881     0.003     22.60
   HCO3-           1.732e-02   1.473e-02    -1.761    -1.832    -0.070     25.83
   CaCO3           8.648e-06   8.700e-06    -5.063    -5.060     0.003    -14.42
   CO3-2           5.024e-07   2.627e-07    -6.299    -6.581    -0.282     -4.24
   CaHCO3+         0.000e+00   0.000e+00  -114.223  -114.297    -0.074     (0)  
Ca            8.667e-03
   Ca+2            8.658e-03   4.522e-03    -2.063    -2.345    -0.282    -18.11
   CaCO3           8.648e-06   8.700e-06    -5.063    -5.060     0.003    -14.42
   CaOH+           2.091e-10   1.763e-10    -9.680    -9.754    -0.074     (0)  
   CaHCO3+         0.000e+00   0.000e+00  -114.223  -114.297    -0.074     (0)  
H(0)          1.075e-14
   H2              5.374e-15   5.406e-15   -14.270   -14.267     0.003     28.57
O(0)          0.000e+00
   O2              0.000e+00   0.000e+00   -49.903   -49.900     0.003     32.98

------------------------------Saturation indices-------------------------------

	Phase               SI   log IAP   log K(348 K,  10 atm)

	Aragonite        -0.11     -8.93   -8.81  CaCO3
	Calcite          -0.00     -8.93   -8.93  CaCO3
	CH4(g)          -23.41    -26.46   -3.05  CH4
	CO2(g)            0.97     -0.88   -1.85  CO2	 Pressure   9.9 atm, phi 0.966.
	H2(g)           -11.13    -14.27   -3.13  H2
	H2O(g)           -0.41     -0.00    0.41  H2O	 Pressure   0.4 atm, phi 0.934.
	O2(g)           -46.80    -49.90   -3.10  O2


Reaction step 15.

Using solution 1.	
Using pure phase assemblage 1.	
Using gas phase 1.	
Using temperature 1.	

-----------------------------------Gas phase-----------------------------------

Total pressure: 10.40      atmospheres          (Peng-Robinson calculation)
    Gas volume:   1.00e-01 liters
  Molar volume:   2.70e+00 liters/mole
   P * Vm / RT:  0.96486  (Compressibility Factor Z) 

                                                        Moles in gas
                                            ----------------------------------
Component         log P           P    phi     Initial       Final       Delta

CO2(g)             0.99   9.879e+00  0.967   0.000e+00   3.520e-02   3.520e-02
H2O(g)            -0.28   5.243e-01  0.936   0.000e+00   1.868e-03   1.868e-03

-------------------------------Phase assemblage--------------------------------

                                                      Moles in assemblage
Phase               SI  log IAP  log K(T, P)   Initial       Final       Delta

CO2(g)            0.97    -0.91     -1.88    1.000e+01   9.834e+00  -1.658e-01
Calcite           0.00    -9.00     -9.00    1.000e+01   9.992e+00  -7.858e-03

-----------------------------Solution composition------------------------------

	Elements           Molality       Moles

	C                 1.385e-01   1.385e-01
	Ca                7.859e-03   7.858e-03

----------------------------Description of solution----------------------------

                                       pH  =   5.378      Charge balance
                                       pe  =   0.078      Adjusted to redox equilibrium
       Specific Conductance (uS/cm, 81 oC) = 3442
                          Density (g/cm3)  =   0.97506
                               Volume (L)  =   1.03921
                        Activity of water  =   0.998
                           Ionic strength  =   2.356e-02
                       Mass of water (kg)  =   9.998e-01
                 Total alkalinity (eq/kg)  =   1.572e-02
                       Total CO2 (mol/kg)  =   1.385e-01
                      Temperature (deg C)  =  81.32
                           Pressure (atm)  = 10.40
                  Electrical balance (eq)  =   1.944e-10
 Percent error, 100*(Cat-|An|)/(Cat+|An|)  =   0.00
                               Iterations  =  38
                                  Total H  = 1.110087e+02
                                  Total O  = 5.578917e+01

----------------------------Distribution of species----------------------------

                                               Log       Log       Log    mole V
   Species          Molality    Activity  Molality  Activity     Gamma   cm3/mol

   H+              4.810e-06   4.190e-06    -5.318    -5.378    -0.060      0.00
   OH-             7.777e-08   6.553e-08    -7.109    -7.184    -0.074     -4.54
   H2O             5.551e+01   9.975e-01     1.744    -0.001     0.000     18.55
C(-4)         8.604e-28
   CH4             8.604e-28   8.650e-28   -27.065   -27.063     0.002     32.22
C(4)          1.385e-01
   CO2             1.228e-01   1.235e-01    -0.911    -0.908     0.002     22.12
   HCO3-           1.570e-02   1.341e-02    -1.804    -1.873    -0.069     25.67
   CaCO3           8.749e-06   8.796e-06    -5.058    -5.056     0.002    -14.41
   CO3-2           4.548e-07   2.417e-07    -6.342    -6.617    -0.275     -4.94
   CaHCO3+         0.000e+00   0.000e+00  -114.303  -114.375    -0.072     (0)  
Ca            7.859e-03
   Ca+2            7.850e-03   4.166e-03    -2.105    -2.380    -0.275    -18.30
   CaCO3           8.749e-06   8.796e-06    -5.058    -5.056     0.002    -14.41
   CaOH+           1.943e-10   1.646e-10    -9.711    -9.784    -0.072     (0)  
   CaHCO3+         0.000e+00   0.000e+00  -114.303  -114.375    -0.072     (0)  
H(0)          1.069e-14
   H2              5.344e-15   5.373e-15   -14.272   -14.270     0.002     28.57
O(0)          0.000e+00
   O2              0.000e+00   0.000e+00   -48.565   -48.563     0.002     33.19

------------------------------Saturation indices-------------------------------

	Phase               SI   log IAP   log K(354 K,  10 atm)

	Aragonite        -0.11     -9.00   -8.89  CaCO3
	Calcite          -0.00     -9.00   -9.00  CaCO3
	CH4(g)          -24.01    -27.06   -3.05  CH4
	CO2(g)            0.97     -0.91   -1.88  CO2	 Pressure   9.9 atm, phi 0.967.
	H2(g)           -11.14    -14.27   -3.13  H2
	H2O(g)           -0.31     -0.00    0.31  H2O	 Pressure   0.5 atm, phi 0.936.
	O2(g)           -45.45    -48.56   -3.11  O2


Reaction step 16.

Using solution 1.	
Using pure phase assemblage 1.	
Using gas phase 1.	
Using temperature 1.	

-----------------------------------Gas phase-----------------------------------

Total pressure: 10.54      atmospheres          (Peng-Robinson calculation)
    Gas volume:   1.00e-01 liters
  Molar volume:   2.71e+00 liters/mole
   P * Vm / RT:  0.96588  (Compressibility Factor Z) 

                                                        Moles in gas
                                            ----------------------------------
Component         log P           P    phi     Initial       Final       Delta

CO2(g)             0.99   9.881e+00  0.969   0.000e+00   3.461e-02   3.461e-02
H2O(g)            -0.18   6.562e-01  0.937   0.000e+00   2.298e-03   2.298e-03

-------------------------------Phase assemblage--------------------------------

                                                      Moles in assemblage
Phase               SI  log IAP  log K(T, P)   Initial       Final       Delta

CO2(g)            0.97    -0.93     -1.91    1.000e+01   9.842e+00  -1.578e-01
Calcite           0.00    -9.07     -9.07    1.000e+01   9.993e+00  -7.122e-03

-----------------------------Solution composition------------------------------

	Elements           Molality       Moles

	C                 1.303e-01   1.303e-01
	Ca                7.124e-03   7.122e-03

----------------------------Description of solution----------------------------

                                       pH  =   5.384      Charge balance
                                       pe  =   0.064      Adjusted to redox equilibrium
       Specific Conductance (uS/cm, 87 oC) = 3357
                          Density (g/cm3)  =   0.97119
                               Volume (L)  =   1.04251
                        Activity of water  =   0.998
                           Ionic strength  =   2.135e-02
                       Mass of water (kg)  =   9.998e-01
                 Total alkalinity (eq/kg)  =   1.425e-02
                       Total CO2 (mol/kg)  =   1.303e-01
                      Temperature (deg C)  =  87.05
                           Pressure (atm)  = 10.54
                  Electrical balance (eq)  =   1.560e-10
 Percent error, 100*(Cat-|An|)/(Cat+|An|)  =   0.00
                               Iterations  =  38
                                  Total H  = 1.110078e+02
                                  Total O  = 5.577166e+01

----------------------------Distribution of species----------------------------

                                               Log       Log       Log    mole V
   Species          Molality    Activity  Molality  Activity     Gamma   cm3/mol

   H+              4.730e-06   4.133e-06    -5.325    -5.384    -0.059      0.00
   OH-             1.003e-07   8.490e-08    -6.999    -7.071    -0.072     -4.85
   H2O             5.551e+01   9.977e-01     1.744    -0.001     0.000     18.62
C(-4)         2.222e-28
   CH4             2.222e-28   2.233e-28   -27.653   -27.651     0.002     32.22
C(4)          1.303e-01
   CO2             1.161e-01   1.167e-01    -0.935    -0.933     0.002     21.68
   HCO3-           1.423e-02   1.220e-02    -1.847    -1.914    -0.067     25.47
   CaCO3           8.715e-06   8.758e-06    -5.060    -5.058     0.002    -14.40
   CO3-2           4.084e-07   2.205e-07    -6.389    -6.657    -0.268     -5.76
   CaHCO3+         0.000e+00   0.000e+00  -114.386  -114.456    -0.070     (0)  
Ca            7.124e-03
   Ca+2            7.115e-03   3.836e-03    -2.148    -2.416    -0.268    -18.51
   CaCO3           8.715e-06   8.758e-06    -5.060    -5.058     0.002    -14.40
   CaOH+           1.807e-10   1.537e-10    -9.743    -9.813    -0.070     (0)  
   CaHCO3+         0.000e+00   0.000e+00  -114.386  -114.456    -0.070     (0)  
H(0)          1.066e-14
   H2              5.329e-15   5.355e-15   -14.273   -14.271     0.002     28.57
O(0)          0.000e+00
   O2              0.000e+00   0.000e+00   -47.273   -47.271     0.002     33.40

------------------------------Saturation indices-------------------------------

	Phase               SI   log IAP   log K(360 K,  11 atm)

	Aragonite        -0.11     -9.07   -8.97  CaCO3
	Calcite          -0.00     -9.07   -9.07  CaCO3
	CH4(g)          -24.59    -27.65   -3.06  CH4
	CO2(g)            0.97     -0.93   -1.91  CO2	 Pressure   9.9 atm, phi 0.969.
	H2(g)           -11.15    -14.27   -3.12  H2
	H2O(g)           -0.21     -0.00    0.21  H2O	 Pressure   0.7 atm, phi 0.937.
	O2(g)           -44.15    -47.27   -3.12  O2


Reaction step 17.

Using solution 1.	
Using pure phase assemblage 1.	
Using gas phase 1.	
Using temperature 1.	

-----------------------------------Gas phase-----------------------------------

Total pressure: 10.70      atmospheres          (Peng-Robinson calculation)
    Gas volume:   1.00e-01 liters
  Molar volume:   2.71e+00 liters/mole
   P * Vm / RT:  0.96670  (Compressibility Factor Z) 

                                                        Moles in gas
                                            ----------------------------------
Component         log P           P    phi     Initial       Final       Delta

CO2(g)             0.99   9.884e+00  0.970   0.000e+00   3.405e-02   3.405e-02
H2O(g)            -0.09   8.148e-01  0.937   0.000e+00   2.807e-03   2.807e-03

-------------------------------Phase assemblage--------------------------------

                                                      Moles in assemblage
Phase               SI  log IAP  log K(T, P)   Initial       Final       Delta

CO2(g)            0.98    -0.96     -1.93    1.000e+01   9.849e+00  -1.508e-01
Calcite           0.00    -9.15     -9.15    1.000e+01   9.994e+00  -6.453e-03

-----------------------------Solution composition------------------------------

	Elements           Molality       Moles

	C                 1.233e-01   1.232e-01
	Ca                6.454e-03   6.453e-03

----------------------------Description of solution----------------------------

                                       pH  =   5.390      Charge balance
                                       pe  =   0.054      Adjusted to redox equilibrium
       Specific Conductance (uS/cm, 92 oC) = 3262
                          Density (g/cm3)  =   0.96718
                               Volume (L)  =   1.04611
                        Activity of water  =   0.998
                           Ionic strength  =   1.934e-02
                       Mass of water (kg)  =   9.998e-01
                 Total alkalinity (eq/kg)  =   1.291e-02
                       Total CO2 (mol/kg)  =   1.233e-01
                      Temperature (deg C)  =  92.79
                           Pressure (atm)  = 10.70
                  Electrical balance (eq)  =   1.219e-10
 Percent error, 100*(Cat-|An|)/(Cat+|An|)  =   0.00
                               Iterations  =  38
                                  Total H  = 1.110068e+02
                                  Total O  = 5.575634e+01

----------------------------Distribution of species----------------------------

                                               Log       Log       Log    mole V
   Species          Molality    Activity  Molality  Activity     Gamma   cm3/mol

   H+              4.648e-06   4.073e-06    -5.333    -5.390    -0.057      0.00
   OH-             1.277e-07   1.086e-07    -6.894    -6.964    -0.070     -5.21
   H2O             5.551e+01   9.978e-01     1.744    -0.001     0.000     18.69
C(-4)         5.454e-29
   CH4             5.454e-29   5.478e-29   -28.263   -28.261     0.002     32.22
C(4)          1.233e-01
   CO2             1.104e-01   1.108e-01    -0.957    -0.955     0.002     21.28
   HCO3-           1.289e-02   1.110e-02    -1.890    -1.955    -0.065     25.22
   CaCO3           8.534e-06   8.573e-06    -5.069    -5.067     0.002    -14.39
[...]

------------------------------Saturation indices-------------------------------

	Phase               SI   log IAP   log K(469 K,  14 atm)

	Aragonite        -0.07    -11.18  -11.11  CaCO3
	Calcite           0.00    -11.18  -11.18  CaCO3
	CH4(g)          -73.35    -76.12   -2.78  CH4
	CO2(g)            1.75     -0.30   -2.04  CO2	 Pressure  61.7 atm, phi 0.937.
	H2(g)           -21.46    -24.29   -2.82  H2
	H2O(g)            1.12     -0.00   -1.12  H2O
	O2(g)            -5.86     -8.75   -2.89  O2


Reaction step 16.

Using solution 1.	
Using pure phase assemblage 1.	
Using temperature 2.	

-------------------------------Phase assemblage--------------------------------

                                                      Moles in assemblage
Phase               SI  log IAP  log K(T, P)   Initial       Final       Delta

CO2(g)            1.75    -0.29     -2.04    1.000e+01   9.485e+00  -5.146e-01
Calcite           0.00   -11.32    -11.32    1.000e+01   9.998e+00  -1.620e-03

-----------------------------Solution composition------------------------------

	Elements           Molality       Moles

	C                 5.163e-01   5.163e-01
	Ca                1.620e-03   1.620e-03

----------------------------Description of solution----------------------------

                                       pH  =   5.001      Charge balance
                                       pe  =   5.111      Adjusted to redox equilibrium
       Specific Conductance (uS/cm, 201 oC) = 2049
                          Density (g/cm3)  =   0.87554
                               Volume (L)  =   1.19710
                        Activity of water  =   0.991
                           Ionic strength  =   4.871e-03
                       Mass of water (kg)  =   1.000e+00
                 Total alkalinity (eq/kg)  =   3.240e-03
                       Total CO2 (mol/kg)  =   5.163e-01
                      Temperature (deg C)  = 201.84
                           Pressure (atm)  = 15.84
                  Electrical balance (eq)  =  -3.953e-17
 Percent error, 100*(Cat-|An|)/(Cat+|An|)  =  -0.00
                               Iterations  =  13
                                  Total H  = 1.110124e+02
                                  Total O  = 5.654035e+01

----------------------------Distribution of species----------------------------

                                               Log       Log       Log    mole V
   Species          Molality    Activity  Molality  Activity     Gamma   cm3/mol

   H+              1.109e-05   9.970e-06    -4.955    -5.001    -0.046      0.00
   OH-             5.559e-07   4.928e-07    -6.255    -6.307    -0.052    -26.56
   H2O             5.551e+01   9.912e-01     1.744    -0.004     0.000     20.89
C(-4)         0.000e+00
   CH4             0.000e+00   0.000e+00   -74.828   -74.828     0.000     32.22
C(4)          5.163e-01
   CO2             5.130e-01   5.136e-01    -0.290    -0.289     0.000     17.28
   HCO3-           3.251e-03   2.896e-03    -2.488    -2.538    -0.050      7.18
   CaCO3           7.146e-08   7.154e-08    -7.146    -7.145     0.000    -13.96
   CO3-2           7.526e-09   4.745e-09    -8.123    -8.324    -0.200    -63.84
   CaHCO3+         0.000e+00   0.000e+00  -116.265  -116.317    -0.052     (0)  
Ca            1.620e-03
   Ca+2            1.620e-03   1.019e-03    -2.790    -2.992    -0.201    -32.00
   CaCO3           7.146e-08   7.154e-08    -7.146    -7.145     0.000    -13.96
   CaOH+           1.895e-11   1.681e-11   -10.722   -10.774    -0.052     (0)  
   CaHCO3+         0.000e+00   0.000e+00  -116.265  -116.317    -0.052     (0)  
H(0)          2.758e-24
   H2              1.379e-24   1.381e-24   -23.860   -23.860     0.000     28.55
O(0)          2.798e-09
   O2              1.399e-09   1.401e-09    -8.854    -8.854     0.000     39.43

------------------------------Saturation indices-------------------------------

	Phase               SI   log IAP   log K(474 K,  16 atm)

	Aragonite        -0.06    -11.32  -11.25  CaCO3
	Calcite           0.00    -11.32  -11.32  CaCO3
	CH4(g)          -72.08    -74.83   -2.75  CH4
	CO2(g)            1.75     -0.29   -2.04  CO2	 Pressure  61.7 atm, phi 0.940.
	H2(g)           -21.06    -23.86   -2.80  H2
	H2O(g)            1.17     -0.00   -1.17  H2O
	O2(g)            -5.99     -8.85   -2.87  O2


Reaction step 17.

Using solution 1.	
Using pure phase assemblage 1.	
Using temperature 2.	

-------------------------------Phase assemblage--------------------------------

                                                      Moles in assemblage
Phase               SI  log IAP  log K(T, P)   Initial       Final       Delta

CO2(g)            1.75    -0.28     -2.03    1.000e+01   9.477e+00  -5.230e-01
Calcite           0.00   -11.46    -11.46    1.000e+01   9.999e+00  -1.441e-03

-----------------------------Solution composition------------------------------

	Elements           Molality       Moles

	C                 5.245e-01   5.245e-01
	Ca                1.441e-03   1.441e-03

----------------------------Description of solution----------------------------

                                       pH  =   5.004      Charge balance
                                       pe  =   4.890      Adjusted to redox equilibrium
       Specific Conductance (uS/cm, 207 oC) = 1895
                          Density (g/cm3)  =   0.86881
                               Volume (L)  =   1.20725
                        Activity of water  =   0.991
                           Ionic strength  =   4.335e-03
                       Mass of water (kg)  =   1.000e+00
                 Total alkalinity (eq/kg)  =   2.883e-03
                       Total CO2 (mol/kg)  =   5.245e-01
                      Temperature (deg C)  = 207.63
                           Pressure (atm)  = 17.83
                  Electrical balance (eq)  =  -3.945e-17
 Percent error, 100*(Cat-|An|)/(Cat+|An|)  =  -0.00
                               Iterations  =  15
                                  Total H  = 1.110124e+02
                                  Total O  = 5.655660e+01

----------------------------Distribution of species----------------------------

                                               Log       Log       Log    mole V
   Species          Molality    Activity  Molality  Activity     Gamma   cm3/mol

   H+              1.099e-05   9.902e-06    -4.959    -5.004    -0.045      0.00
   OH-             5.827e-07   5.186e-07    -6.235    -6.285    -0.051    -29.23
   H2O             5.551e+01   9.911e-01     1.744    -0.004     0.000     21.06
C(-4)         0.000e+00
   CH4             0.000e+00   0.000e+00   -73.529   -73.529     0.000     32.22
C(4)          5.245e-01
   CO2             5.216e-01   5.221e-01    -0.283    -0.282     0.000     17.21
   HCO3-           2.893e-03   2.587e-03    -2.539    -2.587    -0.049      4.87
   CaCO3           4.271e-08   4.275e-08    -7.370    -7.369     0.000    -13.91
   CO3-2           5.920e-09   3.786e-09    -8.228    -8.422    -0.194    -70.98
   CaHCO3+         0.000e+00   0.000e+00  -116.412  -116.462    -0.050     (0)  
Ca            1.441e-03
   Ca+2            1.441e-03   9.197e-04    -2.841    -3.036    -0.195    -33.67
   CaCO3           4.271e-08   4.275e-08    -7.370    -7.369     0.000    -13.91
   CaOH+           1.716e-11   1.528e-11   -10.766   -10.816    -0.050     (0)  
   CaHCO3+         0.000e+00   0.000e+00  -116.412  -116.462    -0.050     (0)  
H(0)          7.360e-24
   H2              3.680e-24   3.684e-24   -23.434   -23.434     0.000     28.55
O(0)          2.092e-09
   O2              1.046e-09   1.047e-09    -8.980    -8.980     0.000     40.02

------------------------------Saturation indices-------------------------------

	Phase               SI   log IAP   log K(480 K,  18 atm)

	Aragonite        -0.06    -11.46  -11.40  CaCO3
	Calcite           0.00    -11.46  -11.46  CaCO3
	CH4(g)          -70.81    -73.53   -2.72  CH4
	CO2(g)            1.74     -0.28   -2.03  CO2	 Pressure  61.7 atm, phi 0.943.
	H2(g)           -20.65    -23.43   -2.78  H2
	H2O(g)            1.22     -0.00   -1.22  H2O
	O2(g)            -6.14     -8.98   -2.84  O2


Reaction step 18.

Using solution 1.	
Using pure phase assemblage 1.	
Using temperature 2.	

-------------------------------Phase assemblage--------------------------------

                                                      Moles in assemblage
Phase               SI  log IAP  log K(T, P)   Initial       Final       Delta

CO2(g)            1.74    -0.27     -2.02    1.000e+01   9.467e+00  -5.326e-01
Calcite           0.00   -11.60    -11.60    1.000e+01   9.999e+00  -1.282e-03

-----------------------------Solution composition------------------------------

	Elements           Molality       Moles

	C                 5.339e-01   5.339e-01
	Ca                1.282e-03   1.282e-03

----------------------------Description of solution----------------------------

                                       pH  =   5.007      Charge balance
                                       pe  =   4.778      Adjusted to redox equilibrium
       Specific Conductance (uS/cm, 213 oC) = 1751
                          Density (g/cm3)  =   0.86192
                               Volume (L)  =   1.21790
                        Activity of water  =   0.991
                           Ionic strength  =   3.856e-03
                       Mass of water (kg)  =   1.000e+00
                 Total alkalinity (eq/kg)  =   2.563e-03
                       Total CO2 (mol/kg)  =   5.339e-01
                      Temperature (deg C)  = 213.42
                           Pressure (atm)  = 20.01
                  Electrical balance (eq)  =  -3.800e-17
 Percent error, 100*(Cat-|An|)/(Cat+|An|)  =  -0.00
                               Iterations  =  16
                                  Total H  = 1.110124e+02
                                  Total O  = 5.657520e+01

----------------------------Distribution of species----------------------------

                                               Log       Log       Log    mole V
   Species          Molality    Activity  Molality  Activity     Gamma   cm3/mol

   H+              1.088e-05   9.839e-06    -4.963    -5.007    -0.044      0.00
   OH-             6.065e-07   5.418e-07    -6.217    -6.266    -0.049    -32.20
   H2O             5.551e+01   9.909e-01     1.744    -0.004     0.000     21.23
C(-4)         0.000e+00
   CH4             0.000e+00   0.000e+00   -73.092   -73.091     0.000     32.22
C(4)          5.339e-01
   CO2             5.313e-01   5.318e-01    -0.275    -0.274     0.000     17.14
   HCO3-           2.574e-03   2.309e-03    -2.589    -2.636    -0.047      2.30
   CaCO3           2.483e-08   2.485e-08    -7.605    -7.605     0.000    -13.85
   CO3-2           4.642e-09   3.010e-09    -8.333    -8.521    -0.188    -78.93
   CaHCO3+         0.000e+00   0.000e+00  -116.561  -116.610    -0.049     (0)  
Ca            1.282e-03
   Ca+2            1.282e-03   8.293e-04    -2.892    -3.081    -0.189    -35.53
   CaCO3           2.483e-08   2.485e-08    -7.605    -7.605     0.000    -13.85
   CaOH+           1.551e-11   1.386e-11   -10.809   -10.858    -0.049     (0)  
   CaHCO3+         0.000e+00   0.000e+00  -116.561  -116.610    -0.049     (0)  
H(0)          1.192e-23
   H2              5.959e-24   5.964e-24   -23.225   -23.224     0.000     28.54
O(0)          4.081e-09
   O2              2.041e-09   2.042e-09    -8.690    -8.690     0.000     40.67

------------------------------Saturation indices-------------------------------

	Phase               SI   log IAP   log K(486 K,  20 atm)

	Aragonite        -0.06    -11.60  -11.54  CaCO3
	Calcite           0.00    -11.60  -11.60  CaCO3
	CH4(g)          -70.41    -73.09   -2.68  CH4
	CO2(g)            1.74     -0.27   -2.02  CO2	 Pressure  61.7 atm, phi 0.946.
	H2(g)           -20.47    -23.22   -2.76  H2
	H2O(g)            1.26     -0.00   -1.27  H2O
	O2(g)            -5.87     -8.69   -2.82  O2


Reaction step 19.

Using solution 1.	
Using pure phase assemblage 1.	
Using temperature 2.	

-------------------------------Phase assemblage--------------------------------

                                                      Moles in assemblage
Phase               SI  log IAP  log K(T, P)   Initial       Final       Delta

CO2(g)            1.74    -0.27     -2.01    1.000e+01   9.457e+00  -5.433e-01
Calcite           0.00   -11.75    -11.75    1.000e+01   9.999e+00  -1.139e-03

-----------------------------Solution composition------------------------------

	Elements           Molality       Moles

	C                 5.444e-01   5.444e-01
	Ca                1.139e-03   1.139e-03

----------------------------Description of solution----------------------------

                                       pH  =   5.010      Charge balance
                                       pe  =   4.557      Adjusted to redox equilibrium
       Specific Conductance (uS/cm, 219 oC) = 1616
                          Density (g/cm3)  =   0.85486
                               Volume (L)  =   1.22910
                        Activity of water  =   0.991
                           Ionic strength  =   3.427e-03
                       Mass of water (kg)  =   1.000e+00
                 Total alkalinity (eq/kg)  =   2.278e-03
                       Total CO2 (mol/kg)  =   5.444e-01
                      Temperature (deg C)  = 219.21
                           Pressure (atm)  = 22.38
                  Electrical balance (eq)  =  -3.814e-17
 Percent error, 100*(Cat-|An|)/(Cat+|An|)  =  -0.00
                               Iterations  =  18
                                  Total H  = 1.110124e+02
                                  Total O  = 5.659621e+01

----------------------------Distribution of species----------------------------

                                               Log       Log       Log    mole V
   Species          Molality    Activity  Molality  Activity     Gamma   cm3/mol

   H+              1.079e-05   9.781e-06    -4.967    -5.010    -0.043      0.00
   OH-             6.267e-07   5.620e-07    -6.203    -6.250    -0.047    -35.52
   H2O             5.551e+01   9.907e-01     1.744    -0.004     0.000     21.42
C(-4)         0.000e+00
   CH4             0.000e+00   0.000e+00   -71.780   -71.780     0.000     32.22
C(4)          5.444e-01
   CO2             5.421e-01   5.426e-01    -0.266    -0.266     0.000     17.09
   HCO3-           2.288e-03   2.060e-03    -2.641    -2.686    -0.046     -0.58
   CaCO3           1.405e-08   1.406e-08    -7.852    -7.852     0.000    -13.78
   CO3-2           3.629e-09   2.385e-09    -8.440    -8.622    -0.182    -87.81
   CaHCO3+         0.000e+00   0.000e+00  -116.712  -116.759    -0.047     (0)  
Ca            1.139e-03
   Ca+2            1.139e-03   7.470e-04    -2.944    -3.127    -0.183    -37.61
   CaCO3           1.405e-08   1.406e-08    -7.852    -7.852     0.000    -13.78
   CaOH+           1.400e-11   1.256e-11   -10.854   -10.901    -0.047     (0)  
   CaHCO3+         0.000e+00   0.000e+00  -116.712  -116.759    -0.047     (0)  
H(0)          3.183e-23
   H2              1.592e-23   1.593e-23   -22.798   -22.798     0.000     28.54
O(0)          2.814e-09
   O2              1.407e-09   1.408e-09    -8.852    -8.851     0.000     41.38

------------------------------Saturation indices-------------------------------

	Phase               SI   log IAP   log K(492 K,  22 atm)

	Aragonite        -0.06    -11.75  -11.69  CaCO3
	Calcite           0.00    -11.75  -11.75  CaCO3
	CH4(g)          -69.13    -71.78   -2.65  CH4
	CO2(g)            1.74     -0.27   -2.00  CO2	 Pressure  61.7 atm, phi 0.949.
	H2(g)           -20.06    -22.80   -2.73  H2
	H2O(g)            1.31     -0.00   -1.31  H2O
	O2(g)            -6.06     -8.85   -2.80  O2


Reaction step 20.

Using solution 1.	
Using pure phase assemblage 1.	
Using temperature 2.	

-------------------------------Phase assemblage--------------------------------

                                                      Moles in assemblage
Phase               SI  log IAP  log K(T, P)   Initial       Final       Delta

CO2(g)            1.74    -0.26     -1.99    1.000e+01   9.445e+00  -5.552e-01
Calcite           0.00   -11.90    -11.90    1.000e+01   9.999e+00  -1.011e-03

-----------------------------Solution composition------------------------------

	Elements           Molality       Moles

	C                 5.562e-01   5.562e-01
	Ca                1.011e-03   1.011e-03

----------------------------Description of solution----------------------------

                                       pH  =   5.012      Charge balance
                                       pe  =   4.445      Adjusted to redox equilibrium
       Specific Conductance (uS/cm, 225 oC) = 1489
                          Density (g/cm3)  =   0.84762
                               Volume (L)  =   1.24088
                        Activity of water  =   0.991
                           Ionic strength  =   3.045e-03
                       Mass of water (kg)  =   1.000e+00
                 Total alkalinity (eq/kg)  =   2.023e-03
                       Total CO2 (mol/kg)  =   5.562e-01
                      Temperature (deg C)  = 225.00
                           Pressure (atm)  = 24.97
                  Electrical balance (eq)  =  -3.724e-17
 Percent error, 100*(Cat-|An|)/(Cat+|An|)  =  -0.00
                               Iterations  =  19
                                  Total H  = 1.110124e+02
                                  Total O  = 5.661967e+01

----------------------------Distribution of species----------------------------

                                               Log       Log       Log    mole V
   Species          Molality    Activity  Molality  Activity     Gamma   cm3/mol

   H+              1.070e-05   9.726e-06    -4.971    -5.012    -0.041      0.00
   OH-             6.432e-07   5.789e-07    -6.192    -6.237    -0.046    -39.24
   H2O             5.551e+01   9.905e-01     1.744    -0.004     0.000     21.61
C(-4)         0.000e+00
   CH4             0.000e+00   0.000e+00   -71.331   -71.330     0.000     32.22
C(4)          5.562e-01
   CO2             5.542e-01   5.546e-01    -0.256    -0.256     0.000     17.05
   HCO3-           2.033e-03   1.837e-03    -2.692    -2.736    -0.044     -3.81
   CaCO3           7.735e-09   7.740e-09    -8.112    -8.111     0.000    -13.70
   CO3-2           2.831e-09   1.885e-09    -8.548    -8.725    -0.177    -97.76
   CaHCO3+         0.000e+00   0.000e+00  -116.863  -116.909    -0.046     (0)  
Ca            1.011e-03
   Ca+2            1.011e-03   6.723e-04    -2.995    -3.172    -0.177    -39.94
   CaCO3           7.735e-09   7.740e-09    -8.112    -8.111     0.000    -13.70
   CaOH+           1.262e-11   1.136e-11   -10.899   -10.945    -0.046     (0)  
   CaHCO3+         0.000e+00   0.000e+00  -116.863  -116.909    -0.046     (0)  
H(0)          5.159e-23
   H2              2.580e-23   2.582e-23   -22.588   -22.588     0.000     28.54
O(0)          5.075e-09
   O2              2.538e-09   2.540e-09    -8.596    -8.595     0.000     42.18

------------------------------Saturation indices-------------------------------

	Phase               SI   log IAP   log K(498 K,  25 atm)

	Aragonite        -0.06    -11.90  -11.84  CaCO3
	Calcite           0.00    -11.90  -11.90  CaCO3
	CH4(g)          -68.72    -71.33   -2.61  CH4
	CO2(g)            1.73     -0.26   -1.99  CO2	 Pressure  61.7 atm, phi 0.952.
	H2(g)           -19.88    -22.59   -2.71  H2
	H2O(g)            1.35     -0.00   -1.36  H2O
	O2(g)            -5.83     -8.60   -2.77  O2


------------------
End of simulation.
------------------

------------------------------------
Reading input data for simulation 6.
------------------------------------

------------------------------
End of Run after 0.11 Seconds.
------------------------------

