WARNING: Database file from DATABASE keyword is used; command line argument ignored.
   Input file: cc_P2
  Output file: cc_P2.out
Database file: ../database/phreeqc.dat

------------------
Reading data base.
------------------

	SOLUTION_MASTER_SPECIES
	SOLUTION_SPECIES
	PHASES
	EXCHANGE_MASTER_SPECIES
	EXCHANGE_SPECIES
	SURFACE_MASTER_SPECIES
	SURFACE_SPECIES
	RATES
	END
------------------------------------
Reading input data for simulation 1.
------------------------------------

	DATABASE ../database/phreeqc.dat
	SOLUTION 1
	 pH 7 charge
	 temp 100
	EQUILIBRIUM_PHASES
	 Calcite
	SOLUTION_SPECIES
	Ca+2 + CO3-2 + H+ = CaHCO3+
		log_k	-100 # remove this complex, data from Ellis, 1963 and Segnit et al. 1962.
	REACTION
	 CO2 1
	 0 4*0.05 5*0.1 8*0.3
	INCREMENTAL_REACTIONS true
	GAS_PHASE
	 fixed_volume
	 volume 1
	 CO2(g) 0
	 H2O(g) 0
	USER_GRAPH
	 -headings tk #Ca_tot Ca+2 CaCO3 CaHCO3+ SI_arg
	 -plot_csv_file cc_tc100.dat
	 -axis_scale x_axis 0 70
	 -axis_titles "CO2 Pressure / bar" "Calcite solubility / (mol/kgw)"
	 10 graph_x pr_p("CO2(g)") * 1.013
	 20 graph_y  tot("Ca"), # mol("Ca+2"), mol("CaCO3"), mol("CaHCO3+")
	END
-------------------------------------------
Beginning of initial solution calculations.
-------------------------------------------

Initial solution 1.	

-----------------------------Solution composition------------------------------

	Elements           Molality       Moles

	Pure water     

----------------------------Description of solution----------------------------

                                       pH  =   6.119      Charge balance
                                       pe  =   4.000    
       Specific Conductance (µS/cm, 100°C)  = 1
                          Density (g/cm³)  =   0.95835
                               Volume (L)  =   1.04346
                        Activity of water  =   1.000
                           Ionic strength  =   7.610e-07
                       Mass of water (kg)  =   1.000e+00
                 Total alkalinity (eq/kg)  =  -1.160e-16
                    Total carbon (mol/kg)  =   0.000e+00
                       Total CO2 (mol/kg)  =   0.000e+00
                         Temperature (°C)  = 100.00
                  Electrical balance (eq)  =   1.160e-16
 Percent error, 100*(Cat-|An|)/(Cat+|An|)  =   0.00
                               Iterations  =   5
                                  Total H  = 1.110124e+02
                                  Total O  = 5.550622e+01

----------------------------Distribution of species----------------------------

                                               Log       Log       Log    mole V
   Species          Molality    Activity  Molality  Activity     Gamma   cm³/mol

   H+              7.610e-07   7.601e-07    -6.119    -6.119    -0.001      0.00
   OH-             7.610e-07   7.601e-07    -6.119    -6.119    -0.001     -5.96
   H2O             5.551e+01   1.000e+00     1.744    -0.000     0.000     18.80
H(0)          4.504e-24
   H2              2.252e-24   2.252e-24   -23.647   -23.647     0.000     28.57
O(0)          3.593e-26
   O2              1.796e-26   1.796e-26   -25.746   -25.746     0.000     33.90

------------------------------Saturation indices-------------------------------

  Phase               SI** log IAP   log K(373 K,   1 atm)

  H2(g)           -20.55    -23.65   -3.10  H2
  H2O(g)           -0.00     -0.00    0.00  H2O
  O2(g)           -22.63    -25.75   -3.11  O2

**For a gas, SI = log10(fugacity). Fugacity = pressure * phi / 1 atm.
  For ideal gases, phi = 1.

-----------------------------------------
Beginning of batch-reaction calculations.
-----------------------------------------

Reaction step 1.

Using solution 1.	
Using pure phase assemblage 1.	
Using gas phase 1.	
Using reaction 1.	

Reaction 1.	

	  0.000e+00 moles of the following reaction have been added:

	                 Relative
	Reactant            moles

	CO2                  1.00000

	                 Relative
	Element             moles
	C                    1.00000
	O                    2.00000

-----------------------------------Gas phase-----------------------------------

Total pressure:  1.00      atmospheres          (Peng-Robinson calculation)
    Gas volume:   1.00e+00 liters
  Molar volume:   3.04e+01 liters/mole
   P * Vm / RT:  0.99132  (Compressibility Factor Z) 

                                                        Moles in gas
                                            ----------------------------------
Component         log P           P    phi     Initial       Final       Delta

CO2(g)            -3.88   1.316e-04  1.001   0.000e+00   4.335e-06   4.335e-06
H2O(g)            -0.00   9.971e-01  0.991   0.000e+00   3.285e-02   3.285e-02

-------------------------------Phase assemblage--------------------------------

                                                      Moles in assemblage
Phase               SI  log IAP  log K(T, P)   Initial       Final       Delta

Calcite           0.00    -9.27     -9.27    1.000e+01   1.000e+01  -1.858e-04

-----------------------------Solution composition------------------------------

	Elements           Molality       Moles

	C                 1.815e-04   1.814e-04
	Ca                1.859e-04   1.858e-04

----------------------------Description of solution----------------------------

                                       pH  =   8.480      Charge balance
                                       pe  =   4.434      Adjusted to redox equilibrium
       Specific Conductance (µS/cm, 100°C)  = 198
                          Density (g/cm³)  =   0.95837
                               Volume (L)  =   1.04284
                        Activity of water  =   1.000
                           Ionic strength  =   5.375e-04
                       Mass of water (kg)  =   9.994e-01
                 Total alkalinity (eq/kg)  =   3.718e-04
                       Total CO2 (mol/kg)  =   1.815e-04
                         Temperature (°C)  = 100.00
                           Pressure (atm)  =  1.00
                  Electrical balance (eq)  =   5.574e-14
 Percent error, 100*(Cat-|An|)/(Cat+|An|)  =   0.00
                               Iterations  =  22
                                  Total H  = 1.109467e+02
                                  Total O  = 5.547392e+01

----------------------------Distribution of species----------------------------

                                               Log       Log       Log    mole V
   Species          Molality    Activity  Molality  Activity     Gamma   cm³/mol

   OH-             1.798e-04   1.743e-04    -3.745    -3.759    -0.014     -5.91
   H+              3.416e-09   3.315e-09    -8.467    -8.480    -0.013      0.00
   H2O             5.551e+01   1.000e+00     1.744    -0.000     0.000     18.80
C(-4)         0.000e+00
   CH4             0.000e+00   0.000e+00   -93.654   -93.653     0.000     32.22
C(4)          1.815e-04
   HCO3-           1.682e-04   1.631e-04    -3.774    -3.787    -0.013     24.69
   CaCO3           7.995e-06   7.996e-06    -5.097    -5.097     0.000    -14.43
   CO3-2           3.892e-06   3.442e-06    -5.410    -5.463    -0.053    -14.07
   CO2             1.444e-06   1.444e-06    -5.840    -5.840     0.000     20.82
   CaHCO3+         0.000e+00   0.000e+00  -117.733  -117.746    -0.014     (0)  
Ca            1.859e-04
   Ca+2            1.779e-04   1.573e-04    -3.750    -3.803    -0.053    -19.85
   CaCO3           7.995e-06   7.996e-06    -5.097    -5.097     0.000    -14.43
   CaOH+           8.122e-09   7.874e-09    -8.090    -8.104    -0.014     (0)  
   CaHCO3+         0.000e+00   0.000e+00  -117.733  -117.746    -0.014     (0)  
H(0)          1.160e-29
   H2              5.799e-30   5.800e-30   -29.237   -29.237     0.000     28.57
O(0)          5.415e-15
   O2              2.708e-15   2.708e-15   -14.567   -14.567     0.000     33.90

------------------------------Saturation indices-------------------------------

  Phase               SI** log IAP   log K(373 K,   1 atm)

  Aragonite        -0.10     -9.27   -9.17  CaCO3
  Calcite           0.00     -9.27   -9.27  CaCO3
  CH4(g)          -90.59    -93.65   -3.06  CH4
  CO2(g)           -3.88     -5.84   -1.96  CO2	 Pressure   0.0 atm, phi 1.001
  H2(g)           -26.14    -29.24   -3.10  H2
  H2O(g)           -0.01     -0.00    0.00  H2O	 Pressure   1.0 atm, phi 0.991
  O2(g)           -11.45    -14.57   -3.11  O2

**For a gas, SI = log10(fugacity). Fugacity = pressure * phi / 1 atm.
  For ideal gases, phi = 1.

Reaction step 2.

Using solution 1.	
Using pure phase assemblage 1.	
Using gas phase 1.	
Using reaction 1.	

Reaction 1.	

	  5.000e-02 moles of the following reaction have been added:

	                 Relative
	Reactant            moles

	CO2                  1.00000

	                 Relative
	Element             moles
	C                    1.00000
	O                    2.00000

-----------------------------------Gas phase-----------------------------------

Total pressure:  2.09      atmospheres          (Peng-Robinson calculation)
    Gas volume:   1.00e+00 liters
  Molar volume:   1.45e+01 liters/mole
   P * Vm / RT:  0.99018  (Compressibility Factor Z) 

                                                        Moles in gas
                                            ----------------------------------
Component         log P           P    phi     Initial       Final       Delta

CO2(g)             0.03   1.082e+00  0.996   4.335e-06   3.570e-02   3.569e-02
H2O(g)             0.00   1.005e+00  0.984   3.285e-02   3.315e-02   2.968e-04

-------------------------------Phase assemblage--------------------------------

                                                      Moles in assemblage
Phase               SI  log IAP  log K(T, P)   Initial       Final       Delta

Calcite          -0.00    -9.27     -9.27    1.000e+01   9.997e+00  -2.339e-03

-----------------------------Solution composition------------------------------

	Elements           Molality       Moles

	C                 1.684e-02   1.683e-02
	Ca                2.526e-03   2.525e-03

----------------------------Description of solution----------------------------

                                       pH  =   6.011      Charge balance
                                       pe  =   6.951      Adjusted to redox equilibrium
       Specific Conductance (µS/cm, 100°C)  = 1456
                          Density (g/cm³)  =   0.95894
                               Volume (L)  =   1.04311
                        Activity of water  =   1.000
                           Ionic strength  =   7.556e-03
                       Mass of water (kg)  =   9.994e-01
                 Total alkalinity (eq/kg)  =   5.053e-03
                       Total CO2 (mol/kg)  =   1.684e-02
                         Temperature (°C)  = 100.00
                           Pressure (atm)  =  2.09
                  Electrical balance (eq)  =   3.009e-11
 Percent error, 100*(Cat-|An|)/(Cat+|An|)  =   0.00
                               Iterations  =  22
                                  Total H  = 1.109461e+02
                                  Total O  = 5.550925e+01

----------------------------Distribution of species----------------------------

                                               Log       Log       Log    mole V
   Species          Molality    Activity  Molality  Activity     Gamma   cm³/mol

   H+              1.071e-06   9.743e-07    -5.970    -6.011    -0.041      0.00
   OH-             6.614e-07   5.932e-07    -6.180    -6.227    -0.047     -5.78
   H2O             5.551e+01   9.997e-01     1.744    -0.000     0.000     18.80
C(-4)         0.000e+00
   CH4             0.000e+00   0.000e+00   -90.134   -90.134     0.001     32.22
C(4)          1.684e-02
   CO2             1.179e-02   1.181e-02    -1.928    -1.928     0.001     20.84
   HCO3-           5.036e-03   4.541e-03    -2.298    -2.343    -0.045     24.84
   CaCO3           7.997e-06   8.011e-06    -5.097    -5.096     0.001    -14.43
   CO3-2           4.938e-07   3.264e-07    -6.306    -6.486    -0.180    -13.56
   CaHCO3+         0.000e+00   0.000e+00  -115.230  -115.277    -0.047     (0)  
Ca            2.526e-03
   Ca+2            2.518e-03   1.662e-03    -2.599    -2.779    -0.180    -19.41
   CaCO3           7.997e-06   8.011e-06    -5.097    -5.096     0.001    -14.43
   CaOH+           3.152e-10   2.831e-10    -9.501    -9.548    -0.047     (0)  
   CaHCO3+         0.000e+00   0.000e+00  -115.230  -115.277    -0.047     (0)  
H(0)          9.228e-30
   H2              4.614e-30   4.622e-30   -29.336   -29.335     0.001     28.57
O(0)          8.490e-15
   O2              4.245e-15   4.253e-15   -14.372   -14.371     0.001     33.90

------------------------------Saturation indices-------------------------------

  Phase               SI** log IAP   log K(373 K,   2 atm)

  Aragonite        -0.10     -9.27   -9.16  CaCO3
  Calcite          -0.00     -9.27   -9.27  CaCO3
  CH4(g)          -87.07    -90.13   -3.06  CH4
  CO2(g)            0.03     -1.93   -1.96  CO2	 Pressure   1.1 atm, phi 0.996
  H2(g)           -26.23    -29.34   -3.10  H2
  H2O(g)           -0.00     -0.00    0.00  H2O	 Pressure   1.0 atm, phi 0.984
  O2(g)           -11.26    -14.37   -3.12  O2

**For a gas, SI = log10(fugacity). Fugacity = pressure * phi / 1 atm.
  For ideal gases, phi = 1.

Reaction step 3.

Using solution 1.	
Using pure phase assemblage 1.	
Using gas phase 1.	
Using reaction 1.	

Reaction 1.	

	  5.000e-02 moles of the following reaction have been added:

	                 Relative
	Reactant            moles

	CO2                  1.00000

	                 Relative
	Element             moles
	C                    1.00000
	O                    2.00000

-----------------------------------Gas phase-----------------------------------

Total pressure:  3.22      atmospheres          (Peng-Robinson calculation)
    Gas volume:   1.00e+00 liters
  Molar volume:   9.41e+00 liters/mole
   P * Vm / RT:  0.98770  (Compressibility Factor Z) 

                                                        Moles in gas
                                            ----------------------------------
Component         log P           P    phi     Initial       Final       Delta

CO2(g)             0.34   2.204e+00  0.993   3.570e-02   7.286e-02   3.716e-02
H2O(g)             0.01   1.012e+00  0.978   3.315e-02   3.346e-02   3.139e-04

-------------------------------Phase assemblage--------------------------------

                                                      Moles in assemblage
Phase               SI  log IAP  log K(T, P)   Initial       Final       Delta

Calcite          -0.00    -9.26     -9.26    9.997e+00   9.997e+00  -7.480e-04

-----------------------------Solution composition------------------------------

	Elements           Molality       Moles

	C                 3.043e-02   3.041e-02
	Ca                3.275e-03   3.273e-03

----------------------------Description of solution----------------------------

                                       pH  =   5.812      Charge balance
                                       pe  =   7.193      Adjusted to redox equilibrium
       Specific Conductance (µS/cm, 100°C)  = 1862
                          Density (g/cm³)  =   0.95942
                               Volume (L)  =   1.04325
                        Activity of water  =   0.999
                           Ionic strength  =   9.803e-03
                       Mass of water (kg)  =   9.993e-01
                 Total alkalinity (eq/kg)  =   6.550e-03
                       Total CO2 (mol/kg)  =   3.043e-02
                         Temperature (°C)  = 100.00
                           Pressure (atm)  =  3.22
                  Electrical balance (eq)  =   8.632e-11
 Percent error, 100*(Cat-|An|)/(Cat+|An|)  =   0.00
                               Iterations  =  21
                                  Total H  = 1.109455e+02
                                  Total O  = 5.553686e+01

----------------------------Distribution of species----------------------------

                                               Log       Log       Log    mole V
   Species          Molality    Activity  Molality  Activity     Gamma   cm³/mol

   H+              1.711e-06   1.541e-06    -5.767    -5.812    -0.046      0.00
   OH-             4.241e-07   3.753e-07    -6.373    -6.426    -0.053     -5.76
   H2O             5.551e+01   9.994e-01     1.744    -0.000     0.000     18.80
C(-4)         0.000e+00
   CH4             0.000e+00   0.000e+00   -90.167   -90.166     0.001     32.22
C(4)          3.043e-02
   CO2             2.389e-02   2.395e-02    -1.622    -1.621     0.001     20.86
   HCO3-           6.534e-03   5.821e-03    -2.185    -2.235    -0.050     24.87
   CaCO3           8.008e-06   8.026e-06    -5.096    -5.096     0.001    -14.42
   CO3-2           4.207e-07   2.649e-07    -6.376    -6.577    -0.201    -13.45
   CaHCO3+         0.000e+00   0.000e+00  -115.024  -115.077    -0.052     (0)  
Ca            3.275e-03
   Ca+2            3.267e-03   2.054e-03    -2.486    -2.687    -0.202    -19.33
   CaCO3           8.008e-06   8.026e-06    -5.096    -5.096     0.001    -14.42
   CaOH+           2.493e-10   2.210e-10    -9.603    -9.656    -0.052     (0)  
   CaHCO3+         0.000e+00   0.000e+00  -115.024  -115.077    -0.052     (0)  
H(0)          7.581e-30
   H2              3.791e-30   3.799e-30   -29.421   -29.420     0.001     28.57
O(0)          1.253e-14
   O2              6.265e-15   6.279e-15   -14.203   -14.202     0.001     33.89

------------------------------Saturation indices-------------------------------

  Phase               SI** log IAP   log K(373 K,   3 atm)

  Aragonite        -0.10     -9.26   -9.16  CaCO3
  Calcite          -0.00     -9.26   -9.26  CaCO3
  CH4(g)          -87.10    -90.17   -3.07  CH4
  CO2(g)            0.34     -1.62   -1.96  CO2	 Pressure   2.2 atm, phi 0.993
  H2(g)           -26.32    -29.42   -3.10  H2
  H2O(g)           -0.00     -0.00    0.00  H2O	 Pressure   1.0 atm, phi 0.978
  O2(g)           -11.09    -14.20   -3.12  O2

**For a gas, SI = log10(fugacity). Fugacity = pressure * phi / 1 atm.
  For ideal gases, phi = 1.

Reaction step 4.

Using solution 1.	
Using pure phase assemblage 1.	
Using gas phase 1.	
Using reaction 1.	

Reaction 1.	

	  5.000e-02 moles of the following reaction have been added:

	                 Relative
	Reactant            moles

	CO2                  1.00000

	                 Relative
	Element             moles
	C                    1.00000
	O                    2.00000

-----------------------------------Gas phase-----------------------------------

Total pressure:  4.35      atmospheres          (Peng-Robinson calculation)
    Gas volume:   1.00e+00 liters
  Molar volume:   6.94e+00 liters/mole
   P * Vm / RT:  0.98491  (Compressibility Factor Z) 

                                                        Moles in gas
                                            ----------------------------------
Component         log P           P    phi     Initial       Final       Delta

CO2(g)             0.52   3.327e+00  0.989   7.286e-02   1.103e-01   3.745e-02
H2O(g)             0.01   1.019e+00  0.972   3.346e-02   3.378e-02   3.188e-04

-------------------------------Phase assemblage--------------------------------

                                                      Moles in assemblage
Phase               SI  log IAP  log K(T, P)   Initial       Final       Delta

Calcite          -0.00    -9.26     -9.26    9.997e+00   9.996e+00  -5.345e-04

-----------------------------Solution composition------------------------------

	Elements           Molality       Moles

	C                 4.352e-02   4.349e-02
	Ca                3.810e-03   3.807e-03

----------------------------Description of solution----------------------------

                                       pH  =   5.697      Charge balance
                                       pe  =   7.360      Adjusted to redox equilibrium
       Specific Conductance (µS/cm, 100°C)  = 2147
                          Density (g/cm³)  =   0.95982
                               Volume (L)  =   1.04345
                        Activity of water  =   0.999
                           Ionic strength  =   1.141e-02
                       Mass of water (kg)  =   9.993e-01
                 Total alkalinity (eq/kg)  =   7.619e-03
                       Total CO2 (mol/kg)  =   4.352e-02
                         Temperature (°C)  = 100.00
                           Pressure (atm)  =  4.35
                  Electrical balance (eq)  =   1.512e-10
 Percent error, 100*(Cat-|An|)/(Cat+|An|)  =   0.00
                               Iterations  =  21
                                  Total H  = 1.109449e+02
                                  Total O  = 5.556323e+01

----------------------------Distribution of species----------------------------

                                               Log       Log       Log    mole V
   Species          Molality    Activity  Molality  Activity     Gamma   cm³/mol

   H+              2.243e-06   2.007e-06    -5.649    -5.697    -0.048      0.00
   OH-             3.287e-07   2.884e-07    -6.483    -6.540    -0.057     -5.75
   H2O             5.551e+01   9.992e-01     1.744    -0.000     0.000     18.80
C(-4)         0.000e+00
   CH4             0.000e+00   0.000e+00   -90.409   -90.408     0.001     32.22
C(4)          4.352e-02
   CO2             3.591e-02   3.600e-02    -1.445    -1.444     0.001     20.88
   HCO3-           7.605e-03   6.723e-03    -2.119    -2.172    -0.054     24.89
   CaCO3           8.020e-06   8.041e-06    -5.096    -5.095     0.001    -14.41
   CO3-2           3.852e-07   2.353e-07    -6.414    -6.628    -0.214    -13.38
   CaHCO3+         0.000e+00   0.000e+00  -114.905  -114.961    -0.056     (0)  
Ca            3.810e-03
   Ca+2            3.802e-03   2.318e-03    -2.420    -2.635    -0.215    -19.27
   CaCO3           8.020e-06   8.041e-06    -5.096    -5.095     0.001    -14.41
   CaOH+           2.178e-10   1.915e-10    -9.662    -9.718    -0.056     (0)  
   CaHCO3+         0.000e+00   0.000e+00  -114.905  -114.961    -0.056     (0)  
H(0)          5.950e-30
   H2              2.975e-30   2.983e-30   -29.526   -29.525     0.001     28.57
O(0)          2.027e-14
   O2              1.013e-14   1.016e-14   -13.994   -13.993     0.001     33.89

------------------------------Saturation indices-------------------------------

  Phase               SI** log IAP   log K(373 K,   4 atm)

  Aragonite        -0.10     -9.26   -9.16  CaCO3
  Calcite          -0.00     -9.26   -9.26  CaCO3
  CH4(g)          -87.34    -90.41   -3.07  CH4
  CO2(g)            0.52     -1.44   -1.96  CO2	 Pressure   3.3 atm, phi 0.989
  H2(g)           -26.42    -29.53   -3.10  H2
  H2O(g)           -0.00     -0.00    0.00  H2O	 Pressure   1.0 atm, phi 0.972
  O2(g)           -10.88    -13.99   -3.12  O2

**For a gas, SI = log10(fugacity). Fugacity = pressure * phi / 1 atm.
  For ideal gases, phi = 1.

Reaction step 5.

Using solution 1.	
Using pure phase assemblage 1.	
Using gas phase 1.	
Using reaction 1.	

Reaction 1.	

	  5.000e-02 moles of the following reaction have been added:

	                 Relative
	Reactant            moles

	CO2                  1.00000

	                 Relative
	Element             moles
	C                    1.00000
	O                    2.00000

-----------------------------------Gas phase-----------------------------------

Total pressure:  5.48      atmospheres          (Peng-Robinson calculation)
    Gas volume:   1.00e+00 liters
  Molar volume:   5.49e+00 liters/mole
   P * Vm / RT:  0.98201  (Compressibility Factor Z) 

                                                        Moles in gas
                                            ----------------------------------
Component         log P           P    phi     Initial       Final       Delta

CO2(g)             0.65   4.450e+00  0.986   1.103e-01   1.480e-01   3.766e-02
H2O(g)             0.01   1.025e+00  0.966   3.378e-02   3.410e-02   3.228e-04

-------------------------------Phase assemblage--------------------------------

                                                      Moles in assemblage
Phase               SI  log IAP  log K(T, P)   Initial       Final       Delta

Calcite          -0.00    -9.26     -9.26    9.996e+00   9.996e+00  -4.303e-04

-----------------------------Solution composition------------------------------

	Elements           Molality       Moles

	C                 5.630e-02   5.626e-02
	Ca                4.240e-03   4.237e-03

----------------------------Description of solution----------------------------

                                       pH  =   5.617      Charge balance
                                       pe  =   7.452      Adjusted to redox equilibrium
       Specific Conductance (µS/cm, 100°C)  = 2375
                          Density (g/cm³)  =   0.96020
                               Volume (L)  =   1.04363
                        Activity of water  =   0.999
                           Ionic strength  =   1.270e-02
                       Mass of water (kg)  =   9.993e-01
                 Total alkalinity (eq/kg)  =   8.481e-03
                       Total CO2 (mol/kg)  =   5.630e-02
                         Temperature (°C)  = 100.00
                           Pressure (atm)  =  5.48
                  Electrical balance (eq)  =   2.211e-10
 Percent error, 100*(Cat-|An|)/(Cat+|An|)  =   0.00
                               Iterations  =  21
                                  Total H  = 1.109442e+02
                                  Total O  = 5.558887e+01

----------------------------Distribution of species----------------------------

                                               Log       Log       Log    mole V
   Species          Molality    Activity  Molality  Activity     Gamma   cm³/mol

   H+              2.712e-06   2.416e-06    -5.567    -5.617    -0.050      0.00
   OH-             2.750e-07   2.397e-07    -6.561    -6.620    -0.060     -5.74
   H2O             5.551e+01   9.990e-01     1.744    -0.000     0.000     18.79
C(-4)         0.000e+00
   CH4             0.000e+00   0.000e+00   -90.376   -90.375     0.001     32.22
C(4)          5.630e-02
   CO2             4.782e-02   4.796e-02    -1.320    -1.319     0.001     20.89
   HCO3-           8.466e-03   7.443e-03    -2.072    -2.128    -0.056     24.90
   CaCO3           8.033e-06   8.056e-06    -5.095    -5.094     0.001    -14.41
   CO3-2           3.628e-07   2.167e-07    -6.440    -6.664    -0.224    -13.32
   CaHCO3+         0.000e+00   0.000e+00  -114.821  -114.879    -0.058     (0)  
Ca            4.240e-03
   Ca+2            4.232e-03   2.523e-03    -2.373    -2.598    -0.225    -19.23
   CaCO3           8.033e-06   8.056e-06    -5.095    -5.094     0.001    -14.41
   CaOH+           1.981e-10   1.732e-10    -9.703    -9.762    -0.058     (0)  
   CaHCO3+         0.000e+00   0.000e+00  -114.821  -114.879    -0.058     (0)  
H(0)          5.639e-30
   H2              2.819e-30   2.828e-30   -29.550   -29.549     0.001     28.57
O(0)          2.250e-14
   O2              1.125e-14   1.128e-14   -13.949   -13.948     0.001     33.88

------------------------------Saturation indices-------------------------------

  Phase               SI** log IAP   log K(373 K,   5 atm)

  Aragonite        -0.10     -9.26   -9.16  CaCO3
  Calcite          -0.00     -9.26   -9.26  CaCO3
  CH4(g)          -87.31    -90.38   -3.07  CH4
  CO2(g)            0.64     -1.32   -1.96  CO2	 Pressure   4.4 atm, phi 0.986
  H2(g)           -26.45    -29.55   -3.10  H2
  H2O(g)           -0.00     -0.00    0.00  H2O	 Pressure   1.0 atm, phi 0.966
  O2(g)           -10.83    -13.95   -3.12  O2

**For a gas, SI = log10(fugacity). Fugacity = pressure * phi / 1 atm.
  For ideal gases, phi = 1.

Reaction step 6.

Using solution 1.	
Using pure phase assemblage 1.	
Using gas phase 1.	
Using reaction 1.	

Reaction 1.	

	  1.000e-01 moles of the following reaction have been added:

	                 Relative
	Reactant            moles

	CO2                  1.00000

	                 Relative
	Element             moles
	C                    1.00000
	O                    2.00000

-----------------------------------Gas phase-----------------------------------

Total pressure:  7.73      atmospheres          (Peng-Robinson calculation)
    Gas volume:   1.00e+00 liters
  Molar volume:   3.87e+00 liters/mole
   P * Vm / RT:  0.97606  (Compressibility Factor Z) 

                                                        Moles in gas
                                            ----------------------------------
Component         log P           P    phi     Initial       Final       Delta

CO2(g)             0.83   6.690e+00  0.980   1.480e-01   2.238e-01   7.585e-02
H2O(g)             0.02   1.039e+00  0.954   3.410e-02   3.476e-02   6.565e-04

-------------------------------Phase assemblage--------------------------------

                                                      Moles in assemblage
Phase               SI  log IAP  log K(T, P)   Initial       Final       Delta

Calcite          -0.00    -9.26     -9.26    9.996e+00   9.995e+00  -6.878e-04

-----------------------------Solution composition------------------------------

	Elements           Molality       Moles

	C                 8.116e-02   8.110e-02
	Ca                4.929e-03   4.925e-03

----------------------------Description of solution----------------------------

                                       pH  =   5.505      Charge balance
                                       pe  =   7.610      Adjusted to redox equilibrium
       Specific Conductance (µS/cm, 100°C)  = 2734
                          Density (g/cm³)  =   0.96093
                               Volume (L)  =   1.04401
                        Activity of water  =   0.999
                           Ionic strength  =   1.477e-02
                       Mass of water (kg)  =   9.993e-01
                 Total alkalinity (eq/kg)  =   9.858e-03
                       Total CO2 (mol/kg)  =   8.116e-02
                         Temperature (°C)  = 100.00
                           Pressure (atm)  =  7.73
                  Electrical balance (eq)  =   2.673e-10
 Percent error, 100*(Cat-|An|)/(Cat+|An|)  =   0.00
                               Iterations  =  23
                                  Total H  = 1.109429e+02
                                  Total O  = 5.563859e+01

----------------------------Distribution of species----------------------------

                                               Log       Log       Log    mole V
   Species          Molality    Activity  Molality  Activity     Gamma   cm³/mol

   H+              3.533e-06   3.127e-06    -5.452    -5.505    -0.053      0.00
   OH-             2.147e-07   1.855e-07    -6.668    -6.732    -0.064     -5.73
   H2O             5.551e+01   9.985e-01     1.744    -0.001     0.000     18.79
C(-4)         0.000e+00
   CH4             0.000e+00   0.000e+00   -90.574   -90.572     0.001     32.22
C(4)          8.116e-02
   CO2             7.131e-02   7.155e-02    -1.147    -1.145     0.001     20.93
   HCO3-           9.844e-03   8.583e-03    -2.007    -2.066    -0.060     24.93
   CaCO3           8.059e-06   8.087e-06    -5.094    -5.092     0.001    -14.39
   CO3-2           3.350e-07   1.936e-07    -6.475    -6.713    -0.238    -13.22
   CaHCO3+         0.000e+00   0.000e+00  -114.702  -114.765    -0.062     (0)  
Ca            4.929e-03
   Ca+2            4.921e-03   2.839e-03    -2.308    -2.547    -0.239    -19.17
   CaCO3           8.059e-06   8.087e-06    -5.094    -5.092     0.001    -14.39
   CaOH+           1.737e-10   1.504e-10    -9.760    -9.823    -0.062     (0)  
   CaHCO3+         0.000e+00   0.000e+00  -114.702  -114.765    -0.062     (0)  
H(0)          4.546e-30
   H2              2.273e-30   2.281e-30   -29.643   -29.642     0.001     28.57
O(0)          3.439e-14
   O2              1.719e-14   1.725e-14   -13.765   -13.763     0.001     33.88

------------------------------Saturation indices-------------------------------

  Phase               SI** log IAP   log K(373 K,   8 atm)

  Aragonite        -0.10     -9.26   -9.16  CaCO3
  Calcite          -0.00     -9.26   -9.26  CaCO3
  CH4(g)          -87.50    -90.57   -3.07  CH4
  CO2(g)            0.82     -1.15   -1.96  CO2	 Pressure   6.7 atm, phi 0.980
  H2(g)           -26.54    -29.64   -3.10  H2
  H2O(g)           -0.00     -0.00    0.00  H2O	 Pressure   1.0 atm, phi 0.954
  O2(g)           -10.65    -13.76   -3.12  O2

**For a gas, SI = log10(fugacity). Fugacity = pressure * phi / 1 atm.
  For ideal gases, phi = 1.

Reaction step 7.

Using solution 1.	
Using pure phase assemblage 1.	
Using gas phase 1.	
Using reaction 1.	

Reaction 1.	

	  1.000e-01 moles of the following reaction have been added:

	                 Relative
	Reactant            moles

	CO2                  1.00000

	                 Relative
	Element             moles
	C                    1.00000
	O                    2.00000

-----------------------------------Gas phase-----------------------------------

Total pressure:  9.97      atmospheres          (Peng-Robinson calculation)
    Gas volume:   1.00e+00 liters
  Molar volume:   2.98e+00 liters/mole
   P * Vm / RT:  0.97006  (Compressibility Factor Z) 

                                                        Moles in gas
                                            ----------------------------------
Component         log P           P    phi     Initial       Final       Delta

CO2(g)             0.95   8.920e+00  0.974   2.238e-01   3.003e-01   7.646e-02
H2O(g)             0.02   1.052e+00  0.943   3.476e-02   3.543e-02   6.705e-04

-------------------------------Phase assemblage--------------------------------

                                                      Moles in assemblage
Phase               SI  log IAP  log K(T, P)   Initial       Final       Delta

Calcite          -0.00    -9.26     -9.26    9.995e+00   9.995e+00  -5.517e-04

-----------------------------Solution composition------------------------------

	Elements           Molality       Moles

	C                 1.053e-01   1.052e-01
	Ca                5.481e-03   5.477e-03

----------------------------Description of solution----------------------------

                                       pH  =   5.427      Charge balance
                                       pe  =   7.678      Adjusted to redox equilibrium
       Specific Conductance (µS/cm, 100°C)  = 3020
                          Density (g/cm³)  =   0.96163
                               Volume (L)  =   1.04437
                        Activity of water  =   0.998
                           Ionic strength  =   1.642e-02
                       Mass of water (kg)  =   9.993e-01
                 Total alkalinity (eq/kg)  =   1.096e-02
                       Total CO2 (mol/kg)  =   1.053e-01
                         Temperature (°C)  = 100.00
                           Pressure (atm)  =  9.97
                  Electrical balance (eq)  =   3.151e-10
 Percent error, 100*(Cat-|An|)/(Cat+|An|)  =   0.00
                               Iterations  =  23
                                  Total H  = 1.109416e+02
                                  Total O  = 5.568665e+01

----------------------------Distribution of species----------------------------

                                               Log       Log       Log    mole V
   Species          Molality    Activity  Molality  Activity     Gamma   cm³/mol

   H+              4.251e-06   3.745e-06    -5.371    -5.427    -0.055      0.00
   OH-             1.808e-07   1.551e-07    -6.743    -6.809    -0.067     -5.72
   H2O             5.551e+01   9.981e-01     1.744    -0.001     0.000     18.79
C(-4)         0.000e+00
   CH4             0.000e+00   0.000e+00   -90.370   -90.369     0.002     32.22
C(4)          1.053e-01
   CO2             9.431e-02   9.467e-02    -1.025    -1.024     0.002     20.97
   HCO3-           1.095e-02   9.490e-03    -1.961    -2.023    -0.062     24.95
   CaCO3           8.086e-06   8.117e-06    -5.092    -5.091     0.002    -14.38
   CO3-2           3.177e-07   1.792e-07    -6.498    -6.747    -0.249    -13.14
   CaHCO3+         0.000e+00   0.000e+00  -114.619  -114.684    -0.065     (0)  
Ca            5.481e-03
   Ca+2            5.473e-03   3.082e-03    -2.262    -2.511    -0.249    -19.11
   CaCO3           8.086e-06   8.117e-06    -5.092    -5.091     0.002    -14.38
   CaOH+           1.584e-10   1.363e-10    -9.800    -9.865    -0.065     (0)  
   CaHCO3+         0.000e+00   0.000e+00  -114.619  -114.684    -0.065     (0)  
H(0)          4.757e-30
   H2              2.379e-30   2.388e-30   -29.624   -29.622     0.002     28.56
O(0)          3.122e-14
   O2              1.561e-14   1.567e-14   -13.807   -13.805     0.002     33.87

------------------------------Saturation indices-------------------------------

  Phase               SI** log IAP   log K(373 K,  10 atm)

  Aragonite        -0.10     -9.26   -9.16  CaCO3
  Calcite          -0.00     -9.26   -9.26  CaCO3
  CH4(g)          -87.30    -90.37   -3.07  CH4
  CO2(g)            0.94     -1.02   -1.96  CO2	 Pressure   8.9 atm, phi 0.974
  H2(g)           -26.52    -29.62   -3.10  H2
  H2O(g)           -0.00     -0.00    0.00  H2O	 Pressure   1.1 atm, phi 0.943
  O2(g)           -10.69    -13.80   -3.12  O2

**For a gas, SI = log10(fugacity). Fugacity = pressure * phi / 1 atm.
  For ideal gases, phi = 1.

Reaction step 8.

Using solution 1.	
Using pure phase assemblage 1.	
Using gas phase 1.	
Using reaction 1.	

Reaction 1.	

	  1.000e-01 moles of the following reaction have been added:

	                 Relative
	Reactant            moles

	CO2                  1.00000

	                 Relative
	Element             moles
	C                    1.00000
	O                    2.00000

-----------------------------------Gas phase-----------------------------------

Total pressure: 12.20      atmospheres          (Peng-Robinson calculation)
    Gas volume:   1.00e+00 liters
  Molar volume:   2.42e+00 liters/mole
   P * Vm / RT:  0.96404  (Compressibility Factor Z) 

                                                        Moles in gas
                                            ----------------------------------
Component         log P           P    phi     Initial       Final       Delta

CO2(g)             1.05   1.114e+01  0.968   3.003e-01   3.773e-01   7.702e-02
H2O(g)             0.03   1.066e+00  0.932   3.543e-02   3.611e-02   6.843e-04

-------------------------------Phase assemblage--------------------------------

                                                      Moles in assemblage
Phase               SI  log IAP  log K(T, P)   Initial       Final       Delta

Calcite          -0.00    -9.26     -9.26    9.995e+00   9.994e+00  -4.674e-04

-----------------------------Solution composition------------------------------

	Elements           Molality       Moles

	C                 1.287e-01   1.286e-01
	Ca                5.949e-03   5.944e-03

----------------------------Description of solution----------------------------

                                       pH  =   5.367      Charge balance
                                       pe  =   7.753      Adjusted to redox equilibrium
       Specific Conductance (µS/cm, 100°C)  = 3260
                          Density (g/cm³)  =   0.96231
                               Volume (L)  =   1.04472
                        Activity of water  =   0.998
                           Ionic strength  =   1.783e-02
                       Mass of water (kg)  =   9.992e-01
                 Total alkalinity (eq/kg)  =   1.190e-02
                       Total CO2 (mol/kg)  =   1.287e-01
                         Temperature (°C)  = 100.00
                           Pressure (atm)  = 12.20
                  Electrical balance (eq)  =   3.642e-10
 Percent error, 100*(Cat-|An|)/(Cat+|An|)  =   0.00
                               Iterations  =  23
                                  Total H  = 1.109402e+02
                                  Total O  = 5.573332e+01

----------------------------Distribution of species----------------------------

                                               Log       Log       Log    mole V
   Species          Molality    Activity  Molality  Activity     Gamma   cm³/mol

   H+              4.898e-06   4.298e-06    -5.310    -5.367    -0.057      0.00
   OH-             1.586e-07   1.353e-07    -6.800    -6.869    -0.069     -5.72
   H2O             5.551e+01   9.977e-01     1.744    -0.001     0.000     18.79
C(-4)         0.000e+00
   CH4             0.000e+00   0.000e+00   -90.395   -90.393     0.002     32.22
C(4)          1.287e-01
   CO2             1.168e-01   1.173e-01    -0.932    -0.931     0.002     21.01
   HCO3-           1.189e-02   1.025e-02    -1.925    -1.989    -0.064     24.97
   CaCO3           8.114e-06   8.147e-06    -5.091    -5.089     0.002    -14.36
   CO3-2           3.056e-07   1.692e-07    -6.515    -6.772    -0.257    -13.07
   CaHCO3+         0.000e+00   0.000e+00  -114.555  -114.622    -0.067     (0)  
Ca            5.949e-03
   Ca+2            5.941e-03   3.282e-03    -2.226    -2.484    -0.258    -19.07
   CaCO3           8.114e-06   8.147e-06    -5.091    -5.089     0.002    -14.36
   CaOH+           1.477e-10   1.264e-10    -9.831    -9.898    -0.067     (0)  
   CaHCO3+         0.000e+00   0.000e+00  -114.555  -114.622    -0.067     (0)  
H(0)          4.438e-30
   H2              2.219e-30   2.228e-30   -29.654   -29.652     0.002     28.56
O(0)          3.568e-14
   O2              1.784e-14   1.791e-14   -13.749   -13.747     0.002     33.86

------------------------------Saturation indices-------------------------------

  Phase               SI** log IAP   log K(373 K,  12 atm)

  Aragonite        -0.10     -9.26   -9.16  CaCO3
  Calcite          -0.00     -9.26   -9.26  CaCO3
  CH4(g)          -87.32    -90.39   -3.07  CH4
  CO2(g)            1.03     -0.93   -1.96  CO2	 Pressure  11.1 atm, phi 0.968
  H2(g)           -26.55    -29.65   -3.11  H2
  H2O(g)           -0.00     -0.00    0.00  H2O	 Pressure   1.1 atm, phi 0.932
  O2(g)           -10.63    -13.75   -3.12  O2

**For a gas, SI = log10(fugacity). Fugacity = pressure * phi / 1 atm.
  For ideal gases, phi = 1.

Reaction step 9.

Using solution 1.	
Using pure phase assemblage 1.	
Using gas phase 1.	
Using reaction 1.	

Reaction 1.	

	  1.000e-01 moles of the following reaction have been added:

	                 Relative
	Reactant            moles

	CO2                  1.00000

	                 Relative
	Element             moles
	C                    1.00000
	O                    2.00000

-----------------------------------Gas phase-----------------------------------

Total pressure: 14.42      atmospheres          (Peng-Robinson calculation)
    Gas volume:   1.00e+00 liters
  Molar volume:   2.03e+00 liters/mole
   P * Vm / RT:  0.95804  (Compressibility Factor Z) 

                                                        Moles in gas
                                            ----------------------------------
Component         log P           P    phi     Initial       Final       Delta

CO2(g)             1.13   1.334e+01  0.962   3.773e-01   4.549e-01   7.756e-02
H2O(g)             0.03   1.080e+00  0.921   3.611e-02   3.681e-02   6.980e-04

-------------------------------Phase assemblage--------------------------------

                                                      Moles in assemblage
Phase               SI  log IAP  log K(T, P)   Initial       Final       Delta

Calcite          -0.00    -9.25     -9.25    9.994e+00   9.994e+00  -4.088e-04

-----------------------------Solution composition------------------------------

	Elements           Molality       Moles

	C                 1.516e-01   1.515e-01
	Ca                6.358e-03   6.353e-03

----------------------------Description of solution----------------------------

                                       pH  =   5.318      Charge balance
                                       pe  =   7.797      Adjusted to redox equilibrium
       Specific Conductance (µS/cm, 100°C)  = 3468
                          Density (g/cm³)  =   0.96297
                               Volume (L)  =   1.04506
                        Activity of water  =   0.997
                           Ionic strength  =   1.906e-02
                       Mass of water (kg)  =   9.992e-01
                 Total alkalinity (eq/kg)  =   1.272e-02
                       Total CO2 (mol/kg)  =   1.516e-01
                         Temperature (°C)  = 100.00
                           Pressure (atm)  = 14.42
                  Electrical balance (eq)  =   4.144e-10
 Percent error, 100*(Cat-|An|)/(Cat+|An|)  =   0.00
                               Iterations  =  23
                                  Total H  = 1.109388e+02
                                  Total O  = 5.577872e+01

----------------------------Distribution of species----------------------------

                                               Log       Log       Log    mole V
   Species          Molality    Activity  Molality  Activity     Gamma   cm³/mol

   H+              5.491e-06   4.804e-06    -5.260    -5.318    -0.058      0.00
   OH-             1.428e-07   1.212e-07    -6.845    -6.916    -0.071     -5.72
   H2O             5.551e+01   9.973e-01     1.744    -0.001     0.000     18.79
C(-4)         0.000e+00
   CH4             0.000e+00   0.000e+00   -90.287   -90.285     0.002     32.22
C(4)          1.516e-01
   CO2             1.389e-01   1.395e-01    -0.857    -0.855     0.002     21.05
   HCO3-           1.270e-02   1.092e-02    -1.896    -1.962    -0.066     24.99
   CaCO3           8.142e-06   8.178e-06    -5.089    -5.087     0.002    -14.35
   CO3-2           2.966e-07   1.616e-07    -6.528    -6.792    -0.264    -13.00
   CaHCO3+         0.000e+00   0.000e+00  -114.503  -114.572    -0.069     (0)  
Ca            6.358e-03
   Ca+2            6.350e-03   3.453e-03    -2.197    -2.462    -0.265    -19.02
   CaCO3           8.142e-06   8.178e-06    -5.089    -5.087     0.002    -14.35
   CaOH+           1.395e-10   1.190e-10    -9.855    -9.925    -0.069     (0)  
   CaHCO3+         0.000e+00   0.000e+00  -114.503  -114.572    -0.069     (0)  
H(0)          4.515e-30
   H2              2.257e-30   2.267e-30   -29.646   -29.644     0.002     28.56
O(0)          3.428e-14
   O2              1.714e-14   1.721e-14   -13.766   -13.764     0.002     33.85

------------------------------Saturation indices-------------------------------

  Phase               SI** log IAP   log K(373 K,  14 atm)

  Aragonite        -0.10     -9.25   -9.15  CaCO3
  Calcite          -0.00     -9.25   -9.25  CaCO3
  CH4(g)          -87.21    -90.29   -3.07  CH4
  CO2(g)            1.11     -0.86   -1.96  CO2	 Pressure  13.3 atm, phi 0.962
  H2(g)           -26.54    -29.64   -3.11  H2
  H2O(g)           -0.00     -0.00    0.00  H2O	 Pressure   1.1 atm, phi 0.921
  O2(g)           -10.64    -13.76   -3.12  O2

**For a gas, SI = log10(fugacity). Fugacity = pressure * phi / 1 atm.
  For ideal gases, phi = 1.

Reaction step 10.

Using solution 1.	
Using pure phase assemblage 1.	
Using gas phase 1.	
Using reaction 1.	

Reaction 1.	

	  1.000e-01 moles of the following reaction have been added:

	                 Relative
	Reactant            moles

	CO2                  1.00000

	                 Relative
	Element             moles
	C                    1.00000
	O                    2.00000

-----------------------------------Gas phase-----------------------------------

Total pressure: 16.63      atmospheres          (Peng-Robinson calculation)
    Gas volume:   1.00e+00 liters
  Molar volume:   1.75e+00 liters/mole
   P * Vm / RT:  0.95206  (Compressibility Factor Z) 

                                                        Moles in gas
                                            ----------------------------------
Component         log P           P    phi     Initial       Final       Delta

CO2(g)             1.19   1.554e+01  0.956   4.549e-01   5.330e-01   7.808e-02
H2O(g)             0.04   1.094e+00  0.910   3.681e-02   3.752e-02   7.117e-04

-------------------------------Phase assemblage--------------------------------

                                                      Moles in assemblage
Phase               SI  log IAP  log K(T, P)   Initial       Final       Delta

Calcite          -0.00    -9.25     -9.25    9.994e+00   9.993e+00  -3.650e-04

-----------------------------Solution composition------------------------------

	Elements           Molality       Moles

	C                 1.739e-01   1.738e-01
	Ca                6.724e-03   6.718e-03

----------------------------Description of solution----------------------------

                                       pH  =   5.278      Charge balance
                                       pe  =   7.831      Adjusted to redox equilibrium
       Specific Conductance (µS/cm, 100°C)  = 3654
                          Density (g/cm³)  =   0.96360
                               Volume (L)  =   1.04540
                        Activity of water  =   0.997
                           Ionic strength  =   2.015e-02
                       Mass of water (kg)  =   9.992e-01
                 Total alkalinity (eq/kg)  =   1.345e-02
                       Total CO2 (mol/kg)  =   1.739e-01
                         Temperature (°C)  = 100.00
                           Pressure (atm)  = 16.63
                  Electrical balance (eq)  =   4.653e-10
 Percent error, 100*(Cat-|An|)/(Cat+|An|)  =   0.00
                               Iterations  =  23
                                  Total H  = 1.109374e+02
                                  Total O  = 5.582295e+01

----------------------------Distribution of species----------------------------

                                               Log       Log       Log    mole V
   Species          Molality    Activity  Molality  Activity     Gamma   cm³/mol

   H+              6.040e-06   5.271e-06    -5.219    -5.278    -0.059      0.00
   OH-             1.308e-07   1.106e-07    -6.883    -6.956    -0.073     -5.72
   H2O             5.551e+01   9.969e-01     1.744    -0.001     0.000     18.78
C(-4)         0.000e+00
   CH4             0.000e+00   0.000e+00   -90.182   -90.180     0.002     32.22
C(4)          1.739e-01
   CO2             1.605e-01   1.612e-01    -0.795    -0.793     0.002     21.08
   HCO3-           1.344e-02   1.150e-02    -1.872    -1.939    -0.067     25.00
   CaCO3           8.170e-06   8.208e-06    -5.088    -5.086     0.002    -14.34
   CO3-2           2.896e-07   1.557e-07    -6.538    -6.808    -0.270    -12.94
   CaHCO3+         0.000e+00   0.000e+00  -114.459  -114.529    -0.071     (0)  
Ca            6.724e-03
   Ca+2            6.715e-03   3.602e-03    -2.173    -2.443    -0.271    -18.99
   CaCO3           8.170e-06   8.208e-06    -5.088    -5.086     0.002    -14.34
   CaOH+           1.331e-10   1.131e-10    -9.876    -9.947    -0.071     (0)  
   CaHCO3+         0.000e+00   0.000e+00  -114.459  -114.529    -0.071     (0)  
H(0)          4.619e-30
   H2              2.309e-30   2.320e-30   -29.636   -29.634     0.002     28.56
O(0)          3.258e-14
   O2              1.629e-14   1.636e-14   -13.788   -13.786     0.002     33.85

------------------------------Saturation indices-------------------------------

  Phase               SI** log IAP   log K(373 K,  17 atm)

  Aragonite        -0.10     -9.25   -9.15  CaCO3
  Calcite          -0.00     -9.25   -9.25  CaCO3
  CH4(g)          -87.11    -90.18   -3.07  CH4
  CO2(g)            1.17     -0.79   -1.96  CO2	 Pressure  15.5 atm, phi 0.956
  H2(g)           -26.53    -29.63   -3.11  H2
  H2O(g)           -0.00     -0.00    0.00  H2O	 Pressure   1.1 atm, phi 0.910
  O2(g)           -10.66    -13.79   -3.12  O2

**For a gas, SI = log10(fugacity). Fugacity = pressure * phi / 1 atm.
  For ideal gases, phi = 1.

Reaction step 11.

Using solution 1.	
Using pure phase assemblage 1.	
Using gas phase 1.	
Using reaction 1.	

Reaction 1.	

	  3.000e-01 moles of the following reaction have been added:

	                 Relative
	Reactant            moles

	CO2                  1.00000

	                 Relative
	Element             moles
	C                    1.00000
	O                    2.00000

-----------------------------------Gas phase-----------------------------------

Total pressure: 23.17      atmospheres          (Peng-Robinson calculation)
    Gas volume:   1.00e+00 liters
  Molar volume:   1.23e+00 liters/mole
   P * Vm / RT:  0.93428  (Compressibility Factor Z) 

                                                        Moles in gas
                                            ----------------------------------
Component         log P           P    phi     Initial       Final       Delta

CO2(g)             1.34   2.203e+01  0.940   5.330e-01   7.702e-01   2.372e-01
H2O(g)             0.06   1.137e+00  0.878   3.752e-02   3.974e-02   2.218e-03

-------------------------------Phase assemblage--------------------------------

                                                      Moles in assemblage
Phase               SI  log IAP  log K(T, P)   Initial       Final       Delta

Calcite          -0.00    -9.24     -9.24    9.993e+00   9.992e+00  -9.137e-04

-----------------------------Solution composition------------------------------

	Elements           Molality       Moles

	C                 2.377e-01   2.375e-01
	Ca                7.638e-03   7.632e-03

----------------------------Description of solution----------------------------

                                       pH  =   5.187      Charge balance
                                       pe  =   7.902      Adjusted to redox equilibrium
       Specific Conductance (µS/cm, 100°C)  = 4114
                          Density (g/cm³)  =   0.96541
                               Volume (L)  =   1.04636
                        Activity of water  =   0.996
                           Ionic strength  =   2.290e-02
                       Mass of water (kg)  =   9.991e-01
                 Total alkalinity (eq/kg)  =   1.528e-02
                       Total CO2 (mol/kg)  =   2.377e-01
                         Temperature (°C)  = 100.00
                           Pressure (atm)  = 23.17
                  Electrical balance (eq)  =   4.888e-10
 Percent error, 100*(Cat-|An|)/(Cat+|An|)  =   0.00
                               Iterations  =  26
                                  Total H  = 1.109330e+02
                                  Total O  = 5.594906e+01

----------------------------Distribution of species----------------------------

                                               Log       Log       Log    mole V
   Species          Molality    Activity  Molality  Activity     Gamma   cm³/mol

   H+              7.492e-06   6.498e-06    -5.125    -5.187    -0.062      0.00
   OH-             1.075e-07   9.011e-08    -6.968    -7.045    -0.077     -5.73
   H2O             5.551e+01   9.958e-01     1.744    -0.002     0.000     18.78
C(-4)         0.000e+00
   CH4             0.000e+00   0.000e+00   -89.883   -89.880     0.002     32.22
C(4)          2.377e-01
   CO2             2.224e-01   2.236e-01    -0.653    -0.651     0.002     21.19
   HCO3-           1.527e-02   1.297e-02    -1.816    -1.887    -0.071     25.05
   CaCO3           8.254e-06   8.298e-06    -5.083    -5.081     0.002    -14.30
   CO3-2           2.755e-07   1.435e-07    -6.560    -6.843    -0.283    -12.78
   CaHCO3+         0.000e+00   0.000e+00  -114.358  -114.432    -0.075     (0)  
Ca            7.638e-03
   Ca+2            7.630e-03   3.965e-03    -2.117    -2.402    -0.284    -18.89
   CaCO3           8.254e-06   8.298e-06    -5.083    -5.081     0.002    -14.30
   CaOH+           1.197e-10   1.008e-10    -9.922    -9.996    -0.075     (0)  
   CaHCO3+         0.000e+00   0.000e+00  -114.358  -114.432    -0.075     (0)  
H(0)          5.034e-30
   H2              2.517e-30   2.530e-30   -29.599   -29.597     0.002     28.56
O(0)          2.701e-14
   O2              1.350e-14   1.357e-14   -13.870   -13.867     0.002     33.83

------------------------------Saturation indices-------------------------------

  Phase               SI** log IAP   log K(373 K,  23 atm)

  Aragonite        -0.10     -9.24   -9.15  CaCO3
  Calcite          -0.00     -9.24   -9.24  CaCO3
  CH4(g)          -86.81    -89.88   -3.07  CH4
  CO2(g)            1.32     -0.65   -1.97  CO2	 Pressure  22.0 atm, phi 0.940
  H2(g)           -26.49    -29.60   -3.11  H2
  H2O(g)           -0.00     -0.00   -0.00  H2O	 Pressure   1.1 atm, phi 0.878
  O2(g)           -10.74    -13.87   -3.13  O2

**For a gas, SI = log10(fugacity). Fugacity = pressure * phi / 1 atm.
  For ideal gases, phi = 1.

Reaction step 12.

Using solution 1.	
Using pure phase assemblage 1.	
Using gas phase 1.	
Using reaction 1.	

Reaction 1.	

	  3.000e-01 moles of the following reaction have been added:

	                 Relative
	Reactant            moles

	CO2                  1.00000

	                 Relative
	Element             moles
	C                    1.00000
	O                    2.00000

-----------------------------------Gas phase-----------------------------------

Total pressure: 29.58      atmospheres          (Peng-Robinson calculation)
    Gas volume:   1.00e+00 liters
  Molar volume:   9.49e-01 liters/mole
   P * Vm / RT:  0.91683  (Compressibility Factor Z) 

                                                        Moles in gas
                                            ----------------------------------
Component         log P           P    phi     Initial       Final       Delta

CO2(g)             1.45   2.840e+01  0.924   7.702e-01   1.012e+00   2.414e-01
H2O(g)             0.07   1.181e+00  0.847   3.974e-02   4.209e-02   2.345e-03

-------------------------------Phase assemblage--------------------------------

                                                      Moles in assemblage
Phase               SI  log IAP  log K(T, P)   Initial       Final       Delta

Calcite          -0.00    -9.24     -9.24    9.992e+00   9.992e+00  -7.328e-04

-----------------------------Solution composition------------------------------

	Elements           Molality       Moles

	C                 2.971e-01   2.968e-01
	Ca                8.372e-03   8.365e-03

----------------------------Description of solution----------------------------

                                       pH  =   5.123      Charge balance
                                       pe  =   8.020      Adjusted to redox equilibrium
       Specific Conductance (µS/cm, 100°C)  = 4479
                          Density (g/cm³)  =   0.96708
                               Volume (L)  =   1.04725
                        Activity of water  =   0.995
                           Ionic strength  =   2.510e-02
                       Mass of water (kg)  =   9.991e-01
                 Total alkalinity (eq/kg)  =   1.674e-02
                       Total CO2 (mol/kg)  =   2.971e-01
                         Temperature (°C)  = 100.00
                           Pressure (atm)  = 29.58
                  Electrical balance (eq)  =   5.097e-10
 Percent error, 100*(Cat-|An|)/(Cat+|An|)  =   0.00
                               Iterations  =  26
                                  Total H  = 1.109283e+02
                                  Total O  = 5.606610e+01

----------------------------Distribution of species----------------------------

                                               Log       Log       Log    mole V
   Species          Molality    Activity  Molality  Activity     Gamma   cm³/mol

   H+              8.727e-06   7.536e-06    -5.059    -5.123    -0.064      0.00
   OH-             9.376e-08   7.803e-08    -7.028    -7.108    -0.080     -5.74
   H2O             5.551e+01   9.948e-01     1.744    -0.002     0.000     18.77
C(-4)         0.000e+00
   CH4             0.000e+00   0.000e+00   -90.213   -90.210     0.003     32.22
C(4)          2.971e-01
   CO2             2.803e-01   2.820e-01    -0.552    -0.550     0.003     21.30
   HCO3-           1.674e-02   1.413e-02    -1.776    -1.850    -0.073     25.08
   CaCO3           8.339e-06   8.387e-06    -5.079    -5.076     0.003    -14.26
   CO3-2           2.672e-07   1.359e-07    -6.573    -6.867    -0.294    -12.64
   CaHCO3+         0.000e+00   0.000e+00  -114.284  -114.362    -0.077     (0)  
Ca            8.372e-03
   Ca+2            8.364e-03   4.246e-03    -2.078    -2.372    -0.294    -18.81
   CaCO3           8.339e-06   8.387e-06    -5.079    -5.076     0.003    -14.26
   CaOH+           1.112e-10   9.302e-11    -9.954   -10.031    -0.077     (0)  
   CaHCO3+         0.000e+00   0.000e+00  -114.284  -114.362    -0.077     (0)  
H(0)          3.912e-30
   H2              1.956e-30   1.967e-30   -29.709   -29.706     0.003     28.56
O(0)          4.407e-14
   O2              2.204e-14   2.216e-14   -13.657   -13.654     0.003     33.80

------------------------------Saturation indices-------------------------------

  Phase               SI** log IAP   log K(373 K,  30 atm)

  Aragonite        -0.10     -9.24   -9.14  CaCO3
  Calcite          -0.00     -9.24   -9.24  CaCO3
  CH4(g)          -87.13    -90.21   -3.08  CH4
  CO2(g)            1.42     -0.55   -1.97  CO2	 Pressure  28.4 atm, phi 0.924
  H2(g)           -26.59    -29.71   -3.11  H2
  H2O(g)            0.00     -0.00   -0.00  H2O	 Pressure   1.2 atm, phi 0.847
  O2(g)           -10.53    -13.65   -3.13  O2

**For a gas, SI = log10(fugacity). Fugacity = pressure * phi / 1 atm.
  For ideal gases, phi = 1.

Reaction step 13.

Using solution 1.	
Using pure phase assemblage 1.	
Using gas phase 1.	
Using reaction 1.	

Reaction 1.	

	  3.000e-01 moles of the following reaction have been added:

	                 Relative
	Reactant            moles

	CO2                  1.00000

	                 Relative
	Element             moles
	C                    1.00000
	O                    2.00000

-----------------------------------Gas phase-----------------------------------

Total pressure: 35.86      atmospheres          (Peng-Robinson calculation)
    Gas volume:   1.00e+00 liters
  Molar volume:   7.68e-01 liters/mole
   P * Vm / RT:  0.89974  (Compressibility Factor Z) 

                                                        Moles in gas
                                            ----------------------------------
Component         log P           P    phi     Initial       Final       Delta

CO2(g)             1.54   3.463e+01  0.908   1.012e+00   1.257e+00   2.453e-01
H2O(g)             0.09   1.228e+00  0.818   4.209e-02   4.456e-02   2.474e-03

-------------------------------Phase assemblage--------------------------------

                                                      Moles in assemblage
Phase               SI  log IAP  log K(T, P)   Initial       Final       Delta

Calcite          -0.00    -9.23     -9.23    9.992e+00   9.991e+00  -6.139e-04

-----------------------------Solution composition------------------------------

	Elements           Molality       Moles

	C                 3.524e-01   3.521e-01
	Ca                8.987e-03   8.979e-03

----------------------------Description of solution----------------------------

                                       pH  =   5.074      Charge balance
                                       pe  =   8.100      Adjusted to redox equilibrium
       Specific Conductance (µS/cm, 100°C)  = 4783
                          Density (g/cm³)  =   0.96863
                               Volume (L)  =   1.04807
                        Activity of water  =   0.994
                           Ionic strength  =   2.695e-02
                       Mass of water (kg)  =   9.990e-01
                 Total alkalinity (eq/kg)  =   1.797e-02
                       Total CO2 (mol/kg)  =   3.524e-01
                         Temperature (°C)  = 100.00
                           Pressure (atm)  = 35.86
                  Electrical balance (eq)  =   5.278e-10
 Percent error, 100*(Cat-|An|)/(Cat+|An|)  =   0.00
                               Iterations  =  26
                                  Total H  = 1.109233e+02
                                  Total O  = 5.617479e+01

----------------------------Distribution of species----------------------------

                                               Log       Log       Log    mole V
   Species          Molality    Activity  Molality  Activity     Gamma   cm³/mol

   H+              9.803e-06   8.435e-06    -5.009    -5.074    -0.065      0.00
   OH-             8.456e-08   6.999e-08    -7.073    -7.155    -0.082     -5.76
   H2O             5.551e+01   9.939e-01     1.744    -0.003     0.000     18.77
C(-4)         0.000e+00
   CH4             0.000e+00   0.000e+00   -90.391   -90.388     0.003     32.22
C(4)          3.524e-01
   CO2             3.344e-01   3.365e-01    -0.476    -0.473     0.003     21.40
   HCO3-           1.797e-02   1.510e-02    -1.746    -1.821    -0.075     25.11
   CaCO3           8.423e-06   8.475e-06    -5.075    -5.072     0.003    -14.22
   CO3-2           2.618e-07   1.307e-07    -6.582    -6.884    -0.302    -12.51
   CaHCO3+         0.000e+00   0.000e+00  -114.227  -114.307    -0.080     (0)  
Ca            8.987e-03
   Ca+2            8.979e-03   4.475e-03    -2.047    -2.349    -0.302    -18.73
   CaCO3           8.423e-06   8.475e-06    -5.075    -5.072     0.003    -14.22
   CaOH+           1.051e-10   8.751e-11    -9.978   -10.058    -0.080     (0)  
   CaHCO3+         0.000e+00   0.000e+00  -114.227  -114.307    -0.080     (0)  
H(0)          3.363e-30
   H2              1.681e-30   1.692e-30   -29.774   -29.772     0.003     28.55
O(0)          5.880e-14
   O2              2.940e-14   2.958e-14   -13.532   -13.529     0.003     33.78

------------------------------Saturation indices-------------------------------

  Phase               SI** log IAP   log K(373 K,  36 atm)

  Aragonite        -0.10     -9.23   -9.13  CaCO3
  Calcite          -0.00     -9.23   -9.23  CaCO3
  CH4(g)          -87.31    -90.39   -3.08  CH4
  CO2(g)            1.50     -0.47   -1.97  CO2	 Pressure  34.6 atm, phi 0.908
  H2(g)           -26.66    -29.77   -3.11  H2
  H2O(g)            0.00     -0.00   -0.00  H2O	 Pressure   1.2 atm, phi 0.818
  O2(g)           -10.40    -13.53   -3.13  O2

**For a gas, SI = log10(fugacity). Fugacity = pressure * phi / 1 atm.
  For ideal gases, phi = 1.

Reaction step 14.

Using solution 1.	
Using pure phase assemblage 1.	
Using gas phase 1.	
Using reaction 1.	

Reaction 1.	

	  3.000e-01 moles of the following reaction have been added:

	                 Relative
	Reactant            moles

	CO2                  1.00000

	                 Relative
	Element             moles
	C                    1.00000
	O                    2.00000

-----------------------------------Gas phase-----------------------------------

Total pressure: 41.99      atmospheres          (Peng-Robinson calculation)
    Gas volume:   1.00e+00 liters
  Molar volume:   6.44e-01 liters/mole
   P * Vm / RT:  0.88304  (Compressibility Factor Z) 

                                                        Moles in gas
                                            ----------------------------------
Component         log P           P    phi     Initial       Final       Delta

CO2(g)             1.61   4.072e+01  0.893   1.257e+00   1.506e+00   2.490e-01
H2O(g)             0.11   1.275e+00  0.789   4.456e-02   4.717e-02   2.606e-03

-------------------------------Phase assemblage--------------------------------

                                                      Moles in assemblage
Phase               SI  log IAP  log K(T, P)   Initial       Final       Delta

Calcite          -0.00    -9.23     -9.23    9.991e+00   9.990e+00  -5.282e-04

-----------------------------Solution composition------------------------------

	Elements           Molality       Moles

	C                 4.040e-01   4.036e-01
	Ca                9.516e-03   9.507e-03

----------------------------Description of solution----------------------------

                                       pH  =   5.035      Charge balance
                                       pe  =   8.135      Adjusted to redox equilibrium
       Specific Conductance (µS/cm, 100°C)  = 5043
                          Density (g/cm³)  =   0.97008
                               Volume (L)  =   1.04883
                        Activity of water  =   0.993
                           Ionic strength  =   2.853e-02
                       Mass of water (kg)  =   9.990e-01
                 Total alkalinity (eq/kg)  =   1.903e-02
                       Total CO2 (mol/kg)  =   4.040e-01
                         Temperature (°C)  = 100.00
                           Pressure (atm)  = 41.99
                  Electrical balance (eq)  =   5.430e-10
 Percent error, 100*(Cat-|An|)/(Cat+|An|)  =   0.00
                               Iterations  =  26
                                  Total H  = 1.109181e+02
                                  Total O  = 5.627574e+01

----------------------------Distribution of species----------------------------

                                               Log       Log       Log    mole V
   Species          Molality    Activity  Molality  Activity     Gamma   cm³/mol

   H+              1.075e-05   9.227e-06    -4.968    -5.035    -0.066      0.00
   OH-             7.796e-08   6.424e-08    -7.108    -7.192    -0.084     -5.78
   H2O             5.551e+01   9.930e-01     1.744    -0.003     0.000     18.76
C(-4)         0.000e+00
   CH4             0.000e+00   0.000e+00   -90.300   -90.297     0.003     32.22
C(4)          4.040e-01
   CO2             3.850e-01   3.875e-01    -0.415    -0.412     0.003     21.50
   HCO3-           1.903e-02   1.593e-02    -1.721    -1.798    -0.077     25.14
   CaCO3           8.506e-06   8.562e-06    -5.070    -5.067     0.003    -14.18
   CO3-2           2.582e-07   1.270e-07    -6.588    -6.896    -0.308    -12.39
   CaHCO3+         0.000e+00   0.000e+00  -114.181  -114.262    -0.081     (0)  
Ca            9.516e-03
   Ca+2            9.508e-03   4.668e-03    -2.022    -2.331    -0.309    -18.66
   CaCO3           8.506e-06   8.562e-06    -5.070    -5.067     0.003    -14.18
   CaOH+           1.005e-10   8.337e-11    -9.998   -10.079    -0.081     (0)  
   CaHCO3+         0.000e+00   0.000e+00  -114.181  -114.262    -0.081     (0)  
H(0)          3.407e-30
   H2              1.703e-30   1.715e-30   -29.769   -29.766     0.003     28.55
O(0)          5.652e-14
   O2              2.826e-14   2.845e-14   -13.549   -13.546     0.003     33.76

------------------------------Saturation indices-------------------------------

  Phase               SI** log IAP   log K(373 K,  42 atm)

  Aragonite        -0.10     -9.23   -9.13  CaCO3
  Calcite          -0.00     -9.23   -9.23  CaCO3
  CH4(g)          -87.21    -90.30   -3.08  CH4
  CO2(g)            1.56     -0.41   -1.97  CO2	 Pressure  40.7 atm, phi 0.893
  H2(g)           -26.65    -29.77   -3.12  H2
  H2O(g)            0.00     -0.00   -0.01  H2O	 Pressure   1.3 atm, phi 0.789
  O2(g)           -10.41    -13.55   -3.13  O2

**For a gas, SI = log10(fugacity). Fugacity = pressure * phi / 1 atm.
  For ideal gases, phi = 1.

Reaction step 15.

Using solution 1.	
Using pure phase assemblage 1.	
Using gas phase 1.	
Using reaction 1.	

Reaction 1.	

	  3.000e-01 moles of the following reaction have been added:

	                 Relative
	Reactant            moles

	CO2                  1.00000

	                 Relative
	Element             moles
	C                    1.00000
	O                    2.00000

-----------------------------------Gas phase-----------------------------------

Total pressure: 47.99      atmospheres          (Peng-Robinson calculation)
    Gas volume:   1.00e+00 liters
  Molar volume:   5.53e-01 liters/mole
   P * Vm / RT:  0.86676  (Compressibility Factor Z) 

                                                        Moles in gas
                                            ----------------------------------
Component         log P           P    phi     Initial       Final       Delta

CO2(g)             1.67   4.667e+01  0.879   1.506e+00   1.758e+00   2.525e-01
H2O(g)             0.12   1.325e+00  0.762   4.717e-02   4.991e-02   2.742e-03

-------------------------------Phase assemblage--------------------------------

                                                      Moles in assemblage
Phase               SI  log IAP  log K(T, P)   Initial       Final       Delta

Calcite          -0.00    -9.22     -9.22    9.990e+00   9.990e+00  -4.626e-04

-----------------------------Solution composition------------------------------

	Elements           Molality       Moles

	C                 4.521e-01   4.516e-01
	Ca                9.980e-03   9.969e-03

----------------------------Description of solution----------------------------

                                       pH  =   5.003      Charge balance
                                       pe  =   8.172      Adjusted to redox equilibrium
       Specific Conductance (µS/cm, 100°C)  = 5269
                          Density (g/cm³)  =   0.97142
                               Volume (L)  =   1.04953
                        Activity of water  =   0.992
                           Ionic strength  =   2.993e-02
                       Mass of water (kg)  =   9.989e-01
                 Total alkalinity (eq/kg)  =   1.996e-02
                       Total CO2 (mol/kg)  =   4.521e-01
                         Temperature (°C)  = 100.00
                           Pressure (atm)  = 47.99
                  Electrical balance (eq)  =   5.556e-10
 Percent error, 100*(Cat-|An|)/(Cat+|An|)  =   0.00
                               Iterations  =  26
                                  Total H  = 1.109126e+02
                                  Total O  = 5.636949e+01

----------------------------Distribution of species----------------------------

                                               Log       Log       Log    mole V
   Species          Molality    Activity  Molality  Activity     Gamma   cm³/mol

   H+              1.160e-05   9.933e-06    -4.935    -5.003    -0.068      0.00
   OH-             7.299e-08   5.992e-08    -7.137    -7.222    -0.086     -5.79
   H2O             5.551e+01   9.921e-01     1.744    -0.003     0.000     18.75
C(-4)         0.000e+00
   CH4             0.000e+00   0.000e+00   -90.291   -90.288     0.003     32.22
C(4)          4.521e-01
   CO2             4.321e-01   4.351e-01    -0.364    -0.361     0.003     21.60
   HCO3-           1.995e-02   1.666e-02    -1.700    -1.778    -0.078     25.16
   CaCO3           8.588e-06   8.648e-06    -5.066    -5.063     0.003    -14.15
   CO3-2           2.558e-07   1.242e-07    -6.592    -6.906    -0.314    -12.28
   CaHCO3+         0.000e+00   0.000e+00  -114.141  -114.224    -0.083     (0)  
Ca            9.980e-03
   Ca+2            9.972e-03   4.835e-03    -2.001    -2.316    -0.314    -18.60
   CaCO3           8.588e-06   8.648e-06    -5.066    -5.063     0.003    -14.15
   CaOH+           9.698e-11   8.014e-11   -10.013   -10.096    -0.083     (0)  
   CaHCO3+         0.000e+00   0.000e+00  -114.141  -114.224    -0.083     (0)  
H(0)          3.315e-30
   H2              1.657e-30   1.669e-30   -29.781   -29.778     0.003     28.55
O(0)          5.892e-14
   O2              2.946e-14   2.966e-14   -13.531   -13.528     0.003     33.74

------------------------------Saturation indices-------------------------------

  Phase               SI** log IAP   log K(373 K,  48 atm)

  Aragonite        -0.10     -9.22   -9.12  CaCO3
  Calcite          -0.00     -9.22   -9.22  CaCO3
  CH4(g)          -87.20    -90.29   -3.09  CH4
  CO2(g)            1.61     -0.36   -1.97  CO2	 Pressure  46.7 atm, phi 0.879
  H2(g)           -26.66    -29.78   -3.12  H2
  H2O(g)            0.00     -0.00   -0.01  H2O	 Pressure   1.3 atm, phi 0.762
  O2(g)           -10.39    -13.53   -3.14  O2

**For a gas, SI = log10(fugacity). Fugacity = pressure * phi / 1 atm.
  For ideal gases, phi = 1.

Reaction step 16.

Using solution 1.	
Using pure phase assemblage 1.	
Using gas phase 1.	
Using reaction 1.	

Reaction 1.	

	  3.000e-01 moles of the following reaction have been added:

	                 Relative
	Reactant            moles

	CO2                  1.00000

	                 Relative
	Element             moles
	C                    1.00000
	O                    2.00000

-----------------------------------Gas phase-----------------------------------

Total pressure: 53.85      atmospheres          (Peng-Robinson calculation)
    Gas volume:   1.00e+00 liters
  Molar volume:   4.84e-01 liters/mole
   P * Vm / RT:  0.85091  (Compressibility Factor Z) 

                                                        Moles in gas
                                            ----------------------------------
Component         log P           P    phi     Initial       Final       Delta

CO2(g)             1.72   5.248e+01  0.865   1.758e+00   2.014e+00   2.557e-01
H2O(g)             0.14   1.375e+00  0.736   4.991e-02   5.279e-02   2.879e-03

-------------------------------Phase assemblage--------------------------------

                                                      Moles in assemblage
Phase               SI  log IAP  log K(T, P)   Initial       Final       Delta

Calcite          -0.00    -9.22     -9.22    9.990e+00   9.990e+00  -4.105e-04

-----------------------------Solution composition------------------------------

	Elements           Molality       Moles

	C                 4.969e-01   4.964e-01
	Ca                1.039e-02   1.038e-02

----------------------------Description of solution----------------------------

                                       pH  =   4.976      Charge balance
                                       pe  =   8.218      Adjusted to redox equilibrium
       Specific Conductance (µS/cm, 100°C)  = 5470
                          Density (g/cm³)  =   0.97267
                               Volume (L)  =   1.05018
                        Activity of water  =   0.991
                           Ionic strength  =   3.116e-02
                       Mass of water (kg)  =   9.989e-01
                 Total alkalinity (eq/kg)  =   2.078e-02
                       Total CO2 (mol/kg)  =   4.969e-01
                         Temperature (°C)  = 100.00
                           Pressure (atm)  = 53.85
                  Electrical balance (eq)  =   5.762e-10
 Percent error, 100*(Cat-|An|)/(Cat+|An|)  =   0.00
                               Iterations  =  25
                                  Total H  = 1.109069e+02
                                  Total O  = 5.645652e+01

----------------------------Distribution of species----------------------------

                                               Log       Log       Log    mole V
   Species          Molality    Activity  Molality  Activity     Gamma   cm³/mol

   H+              1.237e-05   1.057e-05    -4.908    -4.976    -0.068      0.00
   OH-             6.911e-08   5.655e-08    -7.160    -7.248    -0.087     -5.81
   H2O             5.551e+01   9.914e-01     1.744    -0.004     0.000     18.75
C(-4)         0.000e+00
   CH4             0.000e+00   0.000e+00   -90.411   -90.408     0.003     32.22
C(4)          4.969e-01
   CO2             4.761e-01   4.796e-01    -0.322    -0.319     0.003     21.70
   HCO3-           2.078e-02   1.730e-02    -1.682    -1.762    -0.080     25.19
   CaCO3           8.669e-06   8.732e-06    -5.062    -5.059     0.003    -14.11
   CO3-2           2.542e-07   1.222e-07    -6.595    -6.913    -0.318    -12.18
   CaHCO3+         0.000e+00   0.000e+00  -114.108  -114.192    -0.084     (0)  
Ca            1.039e-02
   Ca+2            1.038e-02   4.980e-03    -1.984    -2.303    -0.319    -18.54
   CaCO3           8.669e-06   8.732e-06    -5.062    -5.059     0.003    -14.11
   CaOH+           9.412e-11   7.755e-11   -10.026   -10.110    -0.084     (0)  
   CaHCO3+         0.000e+00   0.000e+00  -114.108  -114.192    -0.084     (0)  
H(0)          3.008e-30
   H2              1.504e-30   1.515e-30   -29.823   -29.820     0.003     28.54
O(0)          7.068e-14
   O2              3.534e-14   3.559e-14   -13.452   -13.449     0.003     33.72

------------------------------Saturation indices-------------------------------

  Phase               SI** log IAP   log K(373 K,  54 atm)

  Aragonite        -0.10     -9.22   -9.12  CaCO3
  Calcite          -0.00     -9.22   -9.22  CaCO3
  CH4(g)          -87.32    -90.41   -3.09  CH4
  CO2(g)            1.66     -0.32   -1.98  CO2	 Pressure  52.5 atm, phi 0.865
  H2(g)           -26.70    -29.82   -3.12  H2
  H2O(g)            0.01     -0.00   -0.01  H2O	 Pressure   1.4 atm, phi 0.736
  O2(g)           -10.31    -13.45   -3.14  O2

**For a gas, SI = log10(fugacity). Fugacity = pressure * phi / 1 atm.
  For ideal gases, phi = 1.

Reaction step 17.

Using solution 1.	
Using pure phase assemblage 1.	
Using gas phase 1.	
Using reaction 1.	

Reaction 1.	

	  3.000e-01 moles of the following reaction have been added:

	                 Relative
	Reactant            moles

	CO2                  1.00000

	                 Relative
	Element             moles
	C                    1.00000
	O                    2.00000

-----------------------------------Gas phase-----------------------------------

Total pressure: 59.57      atmospheres          (Peng-Robinson calculation)
    Gas volume:   1.00e+00 liters
  Molar volume:   4.29e-01 liters/mole
   P * Vm / RT:  0.83551  (Compressibility Factor Z) 

                                                        Moles in gas
                                            ----------------------------------
Component         log P           P    phi     Initial       Final       Delta

CO2(g)             1.76   5.814e+01  0.852   2.014e+00   2.273e+00   2.586e-01
H2O(g)             0.15   1.428e+00  0.711   5.279e-02   5.581e-02   3.019e-03

-------------------------------Phase assemblage--------------------------------

                                                      Moles in assemblage
Phase               SI  log IAP  log K(T, P)   Initial       Final       Delta

Calcite          -0.00    -9.21     -9.21    9.990e+00   9.989e+00  -3.680e-04

-----------------------------Solution composition------------------------------

	Elements           Molality       Moles

	C                 5.387e-01   5.381e-01
	Ca                1.076e-02   1.075e-02

----------------------------Description of solution----------------------------

                                       pH  =   4.953      Charge balance
                                       pe  =   8.252      Adjusted to redox equilibrium
       Specific Conductance (µS/cm, 100°C)  = 5649
                          Density (g/cm³)  =   0.97384
                               Volume (L)  =   1.05077
                        Activity of water  =   0.991
                           Ionic strength  =   3.227e-02
                       Mass of water (kg)  =   9.988e-01
                 Total alkalinity (eq/kg)  =   2.152e-02
                       Total CO2 (mol/kg)  =   5.387e-01
                         Temperature (°C)  = 100.00
                           Pressure (atm)  = 59.57
                  Electrical balance (eq)  =   5.924e-10
 Percent error, 100*(Cat-|An|)/(Cat+|An|)  =   0.00
                               Iterations  =  25
                                  Total H  = 1.109008e+02
                                  Total O  = 5.653732e+01

----------------------------Distribution of species----------------------------

                                               Log       Log       Log    mole V
   Species          Molality    Activity  Molality  Activity     Gamma   cm³/mol

   H+              1.306e-05   1.114e-05    -4.884    -4.953    -0.069      0.00
   OH-             6.601e-08   5.386e-08    -7.180    -7.269    -0.088     -5.83
   H2O             5.551e+01   9.907e-01     1.744    -0.004     0.000     18.74
C(-4)         0.000e+00
   CH4             0.000e+00   0.000e+00   -90.467   -90.464     0.003     32.22
C(4)          5.387e-01
   CO2             5.172e-01   5.211e-01    -0.286    -0.283     0.003     21.79
   HCO3-           2.152e-02   1.787e-02    -1.667    -1.748    -0.081     25.21
   CaCO3           8.750e-06   8.815e-06    -5.058    -5.055     0.003    -14.08
   CO3-2           2.533e-07   1.205e-07    -6.596    -6.919    -0.322    -12.07
   CaHCO3+         0.000e+00   0.000e+00  -114.079  -114.164    -0.085     (0)  
Ca            1.076e-02
   Ca+2            1.075e-02   5.109e-03    -1.969    -2.292    -0.323    -18.48
   CaCO3           8.750e-06   8.815e-06    -5.058    -5.055     0.003    -14.08
   CaOH+           9.178e-11   7.543e-11   -10.037   -10.122    -0.085     (0)  
   CaHCO3+         0.000e+00   0.000e+00  -114.079  -114.164    -0.085     (0)  
H(0)          2.841e-30
   H2              1.421e-30   1.431e-30   -29.847   -29.844     0.003     28.54
O(0)          7.823e-14
   O2              3.912e-14   3.941e-14   -13.408   -13.404     0.003     33.71

------------------------------Saturation indices-------------------------------

  Phase               SI** log IAP   log K(373 K,  60 atm)

  Aragonite        -0.10     -9.21   -9.11  CaCO3
  Calcite          -0.00     -9.21   -9.21  CaCO3
  CH4(g)          -87.37    -90.46   -3.09  CH4
  CO2(g)            1.69     -0.28   -1.98  CO2	 Pressure  58.1 atm, phi 0.852
  H2(g)           -26.72    -29.84   -3.12  H2
  H2O(g)            0.01     -0.00   -0.01  H2O	 Pressure   1.4 atm, phi 0.711
  O2(g)           -10.26    -13.40   -3.14  O2

**For a gas, SI = log10(fugacity). Fugacity = pressure * phi / 1 atm.
  For ideal gases, phi = 1.

Reaction step 18.

Using solution 1.	
Using pure phase assemblage 1.	
Using gas phase 1.	
Using reaction 1.	

Reaction 1.	

	  3.000e-01 moles of the following reaction have been added:

	                 Relative
	Reactant            moles

	CO2                  1.00000

	                 Relative
	Element             moles
	C                    1.00000
	O                    2.00000

-----------------------------------Gas phase-----------------------------------

Total pressure: 65.15      atmospheres          (Peng-Robinson calculation)
    Gas volume:   1.00e+00 liters
  Molar volume:   3.86e-01 liters/mole
   P * Vm / RT:  0.82057  (Compressibility Factor Z) 

                                                        Moles in gas
                                            ----------------------------------
Component         log P           P    phi     Initial       Final       Delta

CO2(g)             1.80   6.367e+01  0.839   2.273e+00   2.534e+00   2.614e-01
H2O(g)             0.17   1.482e+00  0.687   5.581e-02   5.897e-02   3.162e-03

-------------------------------Phase assemblage--------------------------------

                                                      Moles in assemblage
Phase               SI  log IAP  log K(T, P)   Initial       Final       Delta

Calcite          -0.00    -9.21     -9.21    9.989e+00   9.989e+00  -3.325e-04

-----------------------------Solution composition------------------------------

	Elements           Molality       Moles

	C                 5.777e-01   5.770e-01
	Ca                1.109e-02   1.108e-02

----------------------------Description of solution----------------------------

                                       pH  =   4.933      Charge balance
                                       pe  =   8.270      Adjusted to redox equilibrium
       Specific Conductance (µS/cm, 100°C)  = 5810
                          Density (g/cm³)  =   0.97492
                               Volume (L)  =   1.05132
                        Activity of water  =   0.990
                           Ionic strength  =   3.327e-02
                       Mass of water (kg)  =   9.987e-01
                 Total alkalinity (eq/kg)  =   2.219e-02
                       Total CO2 (mol/kg)  =   5.777e-01
                         Temperature (°C)  = 100.00
                           Pressure (atm)  = 65.15
                  Electrical balance (eq)  =   6.047e-10
 Percent error, 100*(Cat-|An|)/(Cat+|An|)  =   0.00
                               Iterations  =  25
                                  Total H  = 1.108945e+02
                                  Total O  = 5.661232e+01

----------------------------Distribution of species----------------------------

                                               Log       Log       Log    mole V
   Species          Molality    Activity  Molality  Activity     Gamma   cm³/mol

   H+              1.369e-05   1.165e-05    -4.864    -4.933    -0.070      0.00
   OH-             6.348e-08   5.166e-08    -7.197    -7.287    -0.089     -5.85
   H2O             5.551e+01   9.900e-01     1.744    -0.004     0.000     18.74
C(-4)         0.000e+00
   CH4             0.000e+00   0.000e+00   -90.424   -90.420     0.003     32.22
C(4)          5.777e-01
   CO2             5.555e-01   5.598e-01    -0.255    -0.252     0.003     21.88
   HCO3-           2.218e-02   1.839e-02    -1.654    -1.735    -0.081     25.23
   CaCO3           8.829e-06   8.897e-06    -5.054    -5.051     0.003    -14.04
   CO3-2           2.527e-07   1.193e-07    -6.597    -6.923    -0.326    -11.98
   CaHCO3+         0.000e+00   0.000e+00  -114.053  -114.139    -0.086     (0)  
Ca            1.109e-02
   Ca+2            1.109e-02   5.225e-03    -1.955    -2.282    -0.327    -18.43
   CaCO3           8.829e-06   8.897e-06    -5.054    -5.051     0.003    -14.04
   CaOH+           8.982e-11   7.365e-11   -10.047   -10.133    -0.086     (0)  
   CaHCO3+         0.000e+00   0.000e+00  -114.053  -114.139    -0.086     (0)  
H(0)          2.851e-30
   H2              1.426e-30   1.437e-30   -29.846   -29.843     0.003     28.54
O(0)          7.679e-14
   O2              3.840e-14   3.869e-14   -13.416   -13.412     0.003     33.69

------------------------------Saturation indices-------------------------------

  Phase               SI** log IAP   log K(373 K,  65 atm)

  Aragonite        -0.10     -9.21   -9.11  CaCO3
  Calcite          -0.00     -9.21   -9.21  CaCO3
  CH4(g)          -87.33    -90.42   -3.09  CH4
  CO2(g)            1.73     -0.25   -1.98  CO2	 Pressure  63.7 atm, phi 0.839
  H2(g)           -26.72    -29.84   -3.13  H2
  H2O(g)            0.01     -0.00   -0.01  H2O	 Pressure   1.5 atm, phi 0.687
  O2(g)           -10.27    -13.41   -3.15  O2

**For a gas, SI = log10(fugacity). Fugacity = pressure * phi / 1 atm.
  For ideal gases, phi = 1.

------------------
End of simulation.
------------------

------------------------------------
Reading input data for simulation 2.
------------------------------------

------------------------------
End of Run after 0.03 Seconds.
------------------------------

