WARNING: Database file from DATABASE keyword is used; command line argument ignored.
   Input file: cc_P
  Output file: cc_P.out
Database file: ../database/phreeqc.dat

------------------
Reading data base.
------------------

	SOLUTION_MASTER_SPECIES
	SOLUTION_SPECIES
	PHASES
	EXCHANGE_MASTER_SPECIES
	EXCHANGE_SPECIES
	SURFACE_MASTER_SPECIES
	SURFACE_SPECIES
	RATES
	END
------------------------------------
Reading input data for simulation 1.
------------------------------------

	DATABASE ../database/phreeqc.dat
	SELECTED_OUTPUT 101
	    file                 cc_P_101.sel
	USER_PUNCH 101
	    headings Mu SC
	    start
	10 PUNCH STR_F$(MU, 20, 12)
	20 PUNCH STR_F$(SC, 20, 10)
	    end
	SOLUTION 1
	 pressure 1
	EQUILIBRIUM_PHASES 1
	 Calcite
	REACTION_PRESSURE
		1 1000 in 20 steps
	USER_GRAPH
	-axis_titles "Pressure / atm" "Ca / ppm"
	 -plot_csv_file cc_P.dat
	 10 graph_x  pressure
	 20 graph_y tot("Ca") * 40e3
	 -end
	END
-------------------------------------------
Beginning of initial solution calculations.
-------------------------------------------

Initial solution 1.	

-----------------------------Solution composition------------------------------

	Elements           Molality       Moles

	Pure water     

----------------------------Description of solution----------------------------

                                       pH  =   7.000    
                                       pe  =   4.000    
       Specific Conductance (µS/cm, 25°C)  = 0
                          Density (g/cm³)  =   0.99704
                               Volume (L)  =   1.00297
                        Activity of water  =   1.000
                           Ionic strength  =   1.007e-07
                       Mass of water (kg)  =   1.000e+00
                 Total alkalinity (eq/kg)  =   1.217e-09
                    Total carbon (mol/kg)  =   0.000e+00
                       Total CO2 (mol/kg)  =   0.000e+00
                         Temperature (°C)  =  25.00
                  Electrical balance (eq)  =  -1.217e-09
 Percent error, 100*(Cat-|An|)/(Cat+|An|)  =  -0.60
                               Iterations  =   0
                                  Total H  = 1.110124e+02
                                  Total O  = 5.550622e+01

----------------------------Distribution of species----------------------------

                                               Log       Log       Log    mole V
   Species          Molality    Activity  Molality  Activity     Gamma   cm³/mol

   OH-             1.013e-07   1.012e-07    -6.995    -6.995    -0.000     -4.14
   H+              1.001e-07   1.000e-07    -7.000    -7.000    -0.000      0.00
   H2O             5.551e+01   1.000e+00     1.744     0.000     0.000     18.07
H(0)          1.416e-25
   H2              7.079e-26   7.079e-26   -25.150   -25.150     0.000     28.61
O(0)          0.000e+00
   O2              0.000e+00   0.000e+00   -42.080   -42.080     0.000     30.40

------------------------------Saturation indices-------------------------------

  Phase               SI** log IAP   log K(298 K,   1 atm)

  H2(g)           -22.05    -25.15   -3.10  H2
  H2O(g)           -1.50      0.00    1.50  H2O
  O2(g)           -39.19    -42.08   -2.89  O2

**For a gas, SI = log10(fugacity). Fugacity = pressure * phi / 1 atm.
  For ideal gases, phi = 1.

-----------------------------------------
Beginning of batch-reaction calculations.
-----------------------------------------

Reaction step 1.

Using solution 1.	
Using pure phase assemblage 1.	
Using pressure 1.	

-------------------------------Phase assemblage--------------------------------

                                                      Moles in assemblage
Phase               SI  log IAP  log K(T, P)   Initial       Final       Delta

Calcite           0.00    -8.48     -8.48    1.000e+01   1.000e+01  -1.230e-04

-----------------------------Solution composition------------------------------

	Elements           Molality       Moles

	C                 1.230e-04   1.230e-04
	Ca                1.230e-04   1.230e-04

----------------------------Description of solution----------------------------

                                       pH  =   9.907      Charge balance
                                       pe  =   7.787      Adjusted to redox equilibrium
       Specific Conductance (µS/cm, 25°C)  = 38
                          Density (g/cm³)  =   0.99706
                               Volume (L)  =   1.00296
                        Activity of water  =   1.000
                           Ionic strength  =   3.856e-04
                       Mass of water (kg)  =   1.000e+00
                 Total alkalinity (eq/kg)  =   2.460e-04
                       Total CO2 (mol/kg)  =   1.230e-04
                         Temperature (°C)  =  25.00
                  Electrical balance (eq)  =  -1.217e-09
 Percent error, 100*(Cat-|An|)/(Cat+|An|)  =  -0.00
                               Iterations  =  17
                                  Total H  = 1.110124e+02
                                  Total O  = 5.550659e+01

----------------------------Distribution of species----------------------------

                                               Log       Log       Log    mole V
   Species          Molality    Activity  Molality  Activity     Gamma   cm³/mol

   OH-             8.353e-05   8.167e-05    -4.078    -4.088    -0.010     -4.12
   H+              1.267e-10   1.239e-10    -9.897    -9.907    -0.009      0.00
   H2O             5.551e+01   1.000e+00     1.744    -0.000     0.000     18.07
C(-4)         0.000e+00
   CH4             0.000e+00   0.000e+00  -124.804  -124.804     0.000     35.46
C(4)          1.230e-04
   HCO3-           8.352e-05   8.168e-05    -4.078    -4.088    -0.010     24.67
   CO3-2           3.379e-05   3.091e-05    -4.471    -4.510    -0.039     -5.32
   CaCO3           5.564e-06   5.565e-06    -5.255    -5.255     0.000    -14.60
   CaHCO3+         1.142e-07   1.117e-07    -6.942    -6.952    -0.010      9.66
   CO2             2.276e-08   2.276e-08    -7.643    -7.643     0.000     34.43
   (CO2)2          9.507e-18   9.508e-18   -17.022   -17.022     0.000     68.87
Ca            1.230e-04
   Ca+2            1.172e-04   1.072e-04    -3.931    -3.970    -0.039    -18.18
   CaCO3           5.564e-06   5.565e-06    -5.255    -5.255     0.000    -14.60
   CaOH+           1.468e-07   1.435e-07    -6.833    -6.843    -0.010     (0)  
   CaHCO3+         1.142e-07   1.117e-07    -6.942    -6.952    -0.010      9.66
H(0)          5.796e-39
   H2              2.898e-39   2.898e-39   -38.538   -38.538     0.000     28.61
O(0)          9.926e-16
   O2              4.963e-16   4.964e-16   -15.304   -15.304     0.000     30.40

------------------------------Saturation indices-------------------------------

  Phase               SI** log IAP   log K(298 K,   1 atm)

  Aragonite        -0.14     -8.48   -8.34  CaCO3
  Calcite           0.00     -8.48   -8.48  CaCO3
  CH4(g)         -122.00   -124.80   -2.80  CH4
  CO2(g)           -6.17     -7.64   -1.47  CO2
  H2(g)           -35.44    -38.54   -3.10  H2
  H2O(g)           -1.50     -0.00    1.50  H2O
  O2(g)           -12.41    -15.30   -2.89  O2

**For a gas, SI = log10(fugacity). Fugacity = pressure * phi / 1 atm.
  For ideal gases, phi = 1.

Reaction step 2.

Using solution 1.	
Using pure phase assemblage 1.	
Using pressure 1.	

-------------------------------Phase assemblage--------------------------------

                                                      Moles in assemblage
Phase               SI  log IAP  log K(T, P)   Initial       Final       Delta

Calcite           0.00    -8.42     -8.42    1.000e+01   1.000e+01  -1.294e-04

-----------------------------Solution composition------------------------------

	Elements           Molality       Moles

	C                 1.294e-04   1.294e-04
	Ca                1.294e-04   1.294e-04

----------------------------Description of solution----------------------------

                                       pH  =   9.901      Charge balance
                                       pe  =   7.792      Adjusted to redox equilibrium
       Specific Conductance (µS/cm, 25°C)  = 39
                          Density (g/cm³)  =   0.99942
                               Volume (L)  =   1.00059
                        Activity of water  =   1.000
                           Ionic strength  =   4.059e-04
                       Mass of water (kg)  =   1.000e+00
                 Total alkalinity (eq/kg)  =   2.589e-04
                       Total CO2 (mol/kg)  =   1.294e-04
                         Temperature (°C)  =  25.00
                           Pressure (atm)  = 53.58
                  Electrical balance (eq)  =  -1.217e-09
 Percent error, 100*(Cat-|An|)/(Cat+|An|)  =  -0.00
                               Iterations  =  17
                                  Total H  = 1.110124e+02
                                  Total O  = 5.550661e+01

----------------------------Distribution of species----------------------------

                                               Log       Log       Log    mole V
   Species          Molality    Activity  Molality  Activity     Gamma   cm³/mol

   OH-             8.636e-05   8.439e-05    -4.064    -4.074    -0.010     -3.92
   H+              1.286e-10   1.257e-10    -9.891    -9.901    -0.010      0.00
   H2O             5.551e+01   1.000e+00     1.744    -0.000     0.000     18.03
C(-4)         0.000e+00
   CH4             0.000e+00   0.000e+00  -124.834  -124.834     0.000     35.53
C(4)          1.294e-04
   HCO3-           8.634e-05   8.440e-05    -4.064    -4.074    -0.010     24.72
   CO3-2           3.674e-05   3.354e-05    -4.435    -4.474    -0.040     -4.83
   CaCO3           6.210e-06   6.211e-06    -5.207    -5.207     0.000    -14.22
   CaHCO3+         1.229e-07   1.201e-07    -6.911    -6.920    -0.010      9.80
   CO2             2.248e-08   2.248e-08    -7.648    -7.648     0.000     34.41
   (CO2)2          9.274e-18   9.275e-18   -17.033   -17.033     0.000     68.82
Ca            1.294e-04
   Ca+2            1.230e-04   1.122e-04    -3.910    -3.950    -0.040    -17.79
   CaCO3           6.210e-06   6.211e-06    -5.207    -5.207     0.000    -14.22
   CaOH+           1.516e-07   1.481e-07    -6.819    -6.829    -0.010     (0)  
   CaHCO3+         1.229e-07   1.201e-07    -6.911    -6.920    -0.010      9.80
H(0)          5.484e-39
   H2              2.742e-39   2.742e-39   -38.562   -38.562     0.000     28.58
O(0)          9.926e-16
   O2              4.963e-16   4.963e-16   -15.304   -15.304     0.000     30.32

------------------------------Saturation indices-------------------------------

  Phase               SI** log IAP   log K(298 K,  54 atm)

  Aragonite        -0.14     -8.42   -8.28  CaCO3
  Calcite           0.00     -8.42   -8.42  CaCO3
  CH4(g)         -122.00   -124.83   -2.84  CH4
  CO2(g)           -6.15     -7.65   -1.50  CO2
  H2(g)           -35.43    -38.56   -3.13  H2
  H2O(g)           -1.49     -0.00    1.49  H2O
  O2(g)           -12.38    -15.30   -2.92  O2

**For a gas, SI = log10(fugacity). Fugacity = pressure * phi / 1 atm.
  For ideal gases, phi = 1.

Reaction step 3.

Using solution 1.	
Using pure phase assemblage 1.	
Using pressure 1.	

-------------------------------Phase assemblage--------------------------------

                                                      Moles in assemblage
Phase               SI  log IAP  log K(T, P)   Initial       Final       Delta

Calcite           0.00    -8.37     -8.37    1.000e+01   1.000e+01  -1.361e-04

-----------------------------Solution composition------------------------------

	Elements           Molality       Moles

	C                 1.361e-04   1.361e-04
	Ca                1.361e-04   1.361e-04

----------------------------Description of solution----------------------------

                                       pH  =   9.894      Charge balance
                                       pe  =   7.797      Adjusted to redox equilibrium
       Specific Conductance (µS/cm, 25°C)  = 41
                          Density (g/cm³)  =   1.00177
                               Volume (L)  =   0.99825
                        Activity of water  =   1.000
                           Ionic strength  =   4.268e-04
                       Mass of water (kg)  =   1.000e+00
                 Total alkalinity (eq/kg)  =   2.722e-04
                       Total CO2 (mol/kg)  =   1.361e-04
                         Temperature (°C)  =  25.00
                           Pressure (atm)  = 106.16
                  Electrical balance (eq)  =  -1.217e-09
 Percent error, 100*(Cat-|An|)/(Cat+|An|)  =  -0.00
                               Iterations  =  17
                                  Total H  = 1.110124e+02
                                  Total O  = 5.550663e+01

----------------------------Distribution of species----------------------------

                                               Log       Log       Log    mole V
   Species          Molality    Activity  Molality  Activity     Gamma   cm³/mol

   OH-             8.920e-05   8.712e-05    -4.050    -4.060    -0.010     -3.74
   H+              1.305e-10   1.276e-10    -9.884    -9.894    -0.010      0.00
   H2O             5.551e+01   1.000e+00     1.744    -0.000     0.000     17.98
C(-4)         0.000e+00
   CH4             0.000e+00   0.000e+00  -124.863  -124.863     0.000     35.60
C(4)          1.361e-04
   HCO3-           8.917e-05   8.712e-05    -4.050    -4.060    -0.010     24.77
   CO3-2           3.985e-05   3.631e-05    -4.400    -4.440    -0.040     -4.37
   CaCO3           6.921e-06   6.921e-06    -5.160    -5.160     0.000    -13.85
   CaHCO3+         1.321e-07   1.291e-07    -6.879    -6.889    -0.010      9.93
   CO2             2.219e-08   2.219e-08    -7.654    -7.654     0.000     34.38
   (CO2)2          9.038e-18   9.038e-18   -17.044   -17.044     0.000     68.77
Ca            1.361e-04
   Ca+2            1.289e-04   1.174e-04    -3.890    -3.930    -0.040    -17.42
   CaCO3           6.921e-06   6.921e-06    -5.160    -5.160     0.000    -13.85
   CaOH+           1.564e-07   1.528e-07    -6.806    -6.816    -0.010     (0)  
   CaHCO3+         1.321e-07   1.291e-07    -6.879    -6.889    -0.010      9.93
H(0)          5.190e-39
   H2              2.595e-39   2.595e-39   -38.586   -38.586     0.000     28.56
O(0)          9.925e-16
   O2              4.962e-16   4.963e-16   -15.304   -15.304     0.000     30.25

------------------------------Saturation indices-------------------------------

  Phase               SI** log IAP   log K(298 K, 106 atm)

  Aragonite        -0.14     -8.37   -8.23  CaCO3
  Calcite           0.00     -8.37   -8.37  CaCO3
  CH4(g)         -121.99   -124.86   -2.87  CH4
  CO2(g)           -6.12     -7.65   -1.53  CO2
  H2(g)           -35.43    -38.59   -3.15  H2
  H2O(g)           -1.47     -0.00    1.47  H2O
  O2(g)           -12.36    -15.30   -2.95  O2

**For a gas, SI = log10(fugacity). Fugacity = pressure * phi / 1 atm.
  For ideal gases, phi = 1.

Reaction step 4.

Using solution 1.	
Using pure phase assemblage 1.	
Using pressure 1.	

-------------------------------Phase assemblage--------------------------------

                                                      Moles in assemblage
Phase               SI  log IAP  log K(T, P)   Initial       Final       Delta

Calcite           0.00    -8.32     -8.32    1.000e+01   1.000e+01  -1.430e-04

-----------------------------Solution composition------------------------------

	Elements           Molality       Moles

	C                 1.430e-04   1.430e-04
	Ca                1.430e-04   1.430e-04

----------------------------Description of solution----------------------------

                                       pH  =   9.888      Charge balance
                                       pe  =   7.802      Adjusted to redox equilibrium
       Specific Conductance (µS/cm, 25°C)  = 43
                          Density (g/cm³)  =   1.00411
                               Volume (L)  =   0.99592
                        Activity of water  =   1.000
                           Ionic strength  =   4.484e-04
                       Mass of water (kg)  =   1.000e+00
                 Total alkalinity (eq/kg)  =   2.860e-04
                       Total CO2 (mol/kg)  =   1.430e-04
                         Temperature (°C)  =  25.00
                           Pressure (atm)  = 158.74
                  Electrical balance (eq)  =  -1.217e-09
 Percent error, 100*(Cat-|An|)/(Cat+|An|)  =  -0.00
                               Iterations  =  17
                                  Total H  = 1.110124e+02
                                  Total O  = 5.550665e+01

----------------------------Distribution of species----------------------------

                                               Log       Log       Log    mole V
   Species          Molality    Activity  Molality  Activity     Gamma   cm³/mol

   OH-             9.205e-05   8.986e-05    -4.036    -4.046    -0.010     -3.55
   H+              1.324e-10   1.294e-10    -9.878    -9.888    -0.010      0.00
   H2O             5.551e+01   1.000e+00     1.744    -0.000     0.000     17.94
C(-4)         0.000e+00
   CH4             0.000e+00   0.000e+00  -124.893  -124.893     0.000     35.66
C(4)          1.430e-04
   HCO3-           9.202e-05   8.986e-05    -4.036    -4.046    -0.010     24.82
   CO3-2           4.311e-05   3.920e-05    -4.365    -4.407    -0.041     -3.91
   CaCO3           7.701e-06   7.701e-06    -5.113    -5.113     0.000    -13.50
   CaHCO3+         1.420e-07   1.386e-07    -6.848    -6.858    -0.010     10.06
   CO2             2.189e-08   2.190e-08    -7.660    -7.660     0.000     34.36
   (CO2)2          8.799e-18   8.800e-18   -17.056   -17.056     0.000     68.72
Ca            1.430e-04
   Ca+2            1.350e-04   1.227e-04    -3.870    -3.911    -0.041    -17.06
   CaCO3           7.701e-06   7.701e-06    -5.113    -5.113     0.000    -13.50
   CaOH+           1.612e-07   1.574e-07    -6.793    -6.803    -0.010     (0)  
   CaHCO3+         1.420e-07   1.386e-07    -6.848    -6.858    -0.010     10.06
H(0)          4.911e-39
   H2              2.456e-39   2.456e-39   -38.610   -38.610     0.000     28.53
O(0)          9.926e-16
   O2              4.963e-16   4.964e-16   -15.304   -15.304     0.000     30.18

------------------------------Saturation indices-------------------------------

  Phase               SI** log IAP   log K(298 K, 159 atm)

  Aragonite        -0.14     -8.32   -8.18  CaCO3
  Calcite           0.00     -8.32   -8.32  CaCO3
  CH4(g)         -121.99   -124.89   -2.90  CH4
  CO2(g)           -6.10     -7.66   -1.56  CO2
  H2(g)           -35.43    -38.61   -3.18  H2
  H2O(g)           -1.45     -0.00    1.45  H2O
  O2(g)           -12.33    -15.30   -2.98  O2

**For a gas, SI = log10(fugacity). Fugacity = pressure * phi / 1 atm.
  For ideal gases, phi = 1.

Reaction step 5.

Using solution 1.	
Using pure phase assemblage 1.	
Using pressure 1.	

-------------------------------Phase assemblage--------------------------------

                                                      Moles in assemblage
Phase               SI  log IAP  log K(T, P)   Initial       Final       Delta

Calcite           0.00    -8.27     -8.27    1.000e+01   1.000e+01  -1.501e-04

-----------------------------Solution composition------------------------------

	Elements           Molality       Moles

	C                 1.501e-04   1.501e-04
	Ca                1.501e-04   1.501e-04

----------------------------Description of solution----------------------------

                                       pH  =   9.882      Charge balance
                                       pe  =   7.807      Adjusted to redox equilibrium
       Specific Conductance (µS/cm, 25°C)  = 45
                          Density (g/cm³)  =   1.00642
                               Volume (L)  =   0.99363
                        Activity of water  =   1.000
                           Ionic strength  =   4.706e-04
                       Mass of water (kg)  =   1.000e+00
                 Total alkalinity (eq/kg)  =   3.003e-04
                       Total CO2 (mol/kg)  =   1.501e-04
                         Temperature (°C)  =  25.00
                           Pressure (atm)  = 211.32
                  Electrical balance (eq)  =  -1.216e-09
 Percent error, 100*(Cat-|An|)/(Cat+|An|)  =  -0.00
                               Iterations  =  17
                                  Total H  = 1.110124e+02
                                  Total O  = 5.550667e+01

----------------------------Distribution of species----------------------------

                                               Log       Log       Log    mole V
   Species          Molality    Activity  Molality  Activity     Gamma   cm³/mol

   OH-             9.491e-05   9.260e-05    -4.023    -4.033    -0.011     -3.38
   H+              1.344e-10   1.312e-10    -9.872    -9.882    -0.010      0.00
   H2O             5.551e+01   1.000e+00     1.744    -0.000     0.000     17.90
C(-4)         0.000e+00
   CH4             0.000e+00   0.000e+00  -124.923  -124.923     0.000     35.72
C(4)          1.501e-04
   HCO3-           9.488e-05   9.260e-05    -4.023    -4.033    -0.011     24.87
   CO3-2           4.652e-05   4.222e-05    -4.332    -4.375    -0.042     -3.47
   CaCO3           8.556e-06   8.557e-06    -5.068    -5.068     0.000    -13.16
   CaHCO3+         1.525e-07   1.488e-07    -6.817    -6.827    -0.011     10.18
   CO2             2.159e-08   2.160e-08    -7.666    -7.666     0.000     34.33
   (CO2)2          8.560e-18   8.561e-18   -17.068   -17.067     0.000     68.67
Ca            1.501e-04
   Ca+2            1.413e-04   1.282e-04    -3.850    -3.892    -0.042    -16.71
   CaCO3           8.556e-06   8.557e-06    -5.068    -5.068     0.000    -13.16
   CaOH+           1.661e-07   1.621e-07    -6.780    -6.790    -0.011     (0)  
   CaHCO3+         1.525e-07   1.488e-07    -6.817    -6.827    -0.011     10.18
H(0)          4.648e-39
   H2              2.324e-39   2.324e-39   -38.634   -38.634     0.000     28.51
O(0)          9.925e-16
   O2              4.963e-16   4.963e-16   -15.304   -15.304     0.000     30.11

------------------------------Saturation indices-------------------------------

  Phase               SI** log IAP   log K(298 K, 211 atm)

  Aragonite        -0.13     -8.27   -8.13  CaCO3
  Calcite           0.00     -8.27   -8.27  CaCO3
  CH4(g)         -121.99   -124.92   -2.94  CH4
  CO2(g)           -6.07     -7.67   -1.60  CO2
  H2(g)           -35.43    -38.63   -3.21  H2
  H2O(g)           -1.44     -0.00    1.44  H2O
  O2(g)           -12.30    -15.30   -3.00  O2

**For a gas, SI = log10(fugacity). Fugacity = pressure * phi / 1 atm.
  For ideal gases, phi = 1.

Reaction step 6.

Using solution 1.	
Using pure phase assemblage 1.	
Using pressure 1.	

-------------------------------Phase assemblage--------------------------------

                                                      Moles in assemblage
Phase               SI  log IAP  log K(T, P)   Initial       Final       Delta

Calcite           0.00    -8.22     -8.22    1.000e+01   1.000e+01  -1.575e-04

-----------------------------Solution composition------------------------------

	Elements           Molality       Moles

	C                 1.575e-04   1.575e-04
	Ca                1.575e-04   1.575e-04

----------------------------Description of solution----------------------------

                                       pH  =   9.876      Charge balance
                                       pe  =   7.812      Adjusted to redox equilibrium
       Specific Conductance (µS/cm, 25°C)  = 47
                          Density (g/cm³)  =   1.00872
                               Volume (L)  =   0.99137
                        Activity of water  =   1.000
                           Ionic strength  =   4.935e-04
                       Mass of water (kg)  =   1.000e+00
                 Total alkalinity (eq/kg)  =   3.150e-04
                       Total CO2 (mol/kg)  =   1.575e-04
                         Temperature (°C)  =  25.00
                           Pressure (atm)  = 263.89
                  Electrical balance (eq)  =  -1.216e-09
 Percent error, 100*(Cat-|An|)/(Cat+|An|)  =  -0.00
                               Iterations  =  17
                                  Total H  = 1.110124e+02
                                  Total O  = 5.550669e+01

----------------------------Distribution of species----------------------------

                                               Log       Log       Log    mole V
   Species          Molality    Activity  Molality  Activity     Gamma   cm³/mol

   OH-             9.778e-05   9.536e-05    -4.010    -4.021    -0.011     -3.21
   H+              1.364e-10   1.331e-10    -9.865    -9.876    -0.010      0.00
   H2O             5.551e+01   1.000e+00     1.744    -0.000     0.000     17.86
C(-4)         0.000e+00
   CH4             0.000e+00   0.000e+00  -124.954  -124.954     0.000     35.78
C(4)          1.575e-04
   HCO3-           9.775e-05   9.535e-05    -4.010    -4.021    -0.011     24.91
   CO3-2           5.010e-05   4.537e-05    -4.300    -4.343    -0.043     -3.05
   CaCO3           9.495e-06   9.496e-06    -5.023    -5.022     0.000    -12.83
   CaHCO3+         1.636e-07   1.596e-07    -6.786    -6.797    -0.011     10.30
   CO2             2.129e-08   2.129e-08    -7.672    -7.672     0.000     34.31
   (CO2)2          8.320e-18   8.321e-18   -17.080   -17.080     0.000     68.62
Ca            1.575e-04
   Ca+2            1.477e-04   1.337e-04    -3.831    -3.874    -0.043    -16.38
   CaCO3           9.495e-06   9.496e-06    -5.023    -5.022     0.000    -12.83
   CaOH+           1.710e-07   1.667e-07    -6.767    -6.778    -0.011     (0)  
   CaHCO3+         1.636e-07   1.596e-07    -6.786    -6.797    -0.011     10.30
H(0)          4.400e-39
   H2              2.200e-39   2.200e-39   -38.658   -38.658     0.000     28.49
O(0)          9.925e-16
   O2              4.963e-16   4.963e-16   -15.304   -15.304     0.000     30.04

------------------------------Saturation indices-------------------------------

  Phase               SI** log IAP   log K(298 K, 264 atm)

  Aragonite        -0.13     -8.22   -8.09  CaCO3
  Calcite           0.00     -8.22   -8.22  CaCO3
  CH4(g)         -121.98   -124.95   -2.97  CH4
  CO2(g)           -6.04     -7.67   -1.63  CO2
  H2(g)           -35.42    -38.66   -3.23  H2
  H2O(g)           -1.42     -0.00    1.42  H2O
  O2(g)           -12.27    -15.30   -3.03  O2

**For a gas, SI = log10(fugacity). Fugacity = pressure * phi / 1 atm.
  For ideal gases, phi = 1.

Reaction step 7.

Using solution 1.	
Using pure phase assemblage 1.	
Using pressure 1.	

-------------------------------Phase assemblage--------------------------------

                                                      Moles in assemblage
Phase               SI  log IAP  log K(T, P)   Initial       Final       Delta

Calcite           0.00    -8.17     -8.17    1.000e+01   1.000e+01  -1.652e-04

-----------------------------Solution composition------------------------------

	Elements           Molality       Moles

	C                 1.652e-04   1.652e-04
	Ca                1.652e-04   1.652e-04

----------------------------Description of solution----------------------------

                                       pH  =   9.870      Charge balance
                                       pe  =   7.816      Adjusted to redox equilibrium
       Specific Conductance (µS/cm, 25°C)  = 49
                          Density (g/cm³)  =   1.01099
                               Volume (L)  =   0.98914
                        Activity of water  =   1.000
                           Ionic strength  =   5.171e-04
                       Mass of water (kg)  =   1.000e+00
                 Total alkalinity (eq/kg)  =   3.303e-04
                       Total CO2 (mol/kg)  =   1.652e-04
                         Temperature (°C)  =  25.00
                           Pressure (atm)  = 316.47
                  Electrical balance (eq)  =  -1.216e-09
 Percent error, 100*(Cat-|An|)/(Cat+|An|)  =  -0.00
                               Iterations  =  17
                                  Total H  = 1.110124e+02
                                  Total O  = 5.550671e+01

----------------------------Distribution of species----------------------------

                                               Log       Log       Log    mole V
   Species          Molality    Activity  Molality  Activity     Gamma   cm³/mol

   OH-             1.007e-04   9.812e-05    -3.997    -4.008    -0.011     -3.04
   H+              1.384e-10   1.350e-10    -9.859    -9.870    -0.011      0.00
   H2O             5.551e+01   1.000e+00     1.744    -0.000     0.000     17.82
C(-4)         0.000e+00
   CH4             0.000e+00   0.000e+00  -124.984  -124.984     0.000     35.84
C(4)          1.652e-04
   HCO3-           1.006e-04   9.811e-05    -3.997    -4.008    -0.011     24.96
   CO3-2           5.382e-05   4.865e-05    -4.269    -4.313    -0.044     -2.63
   CaCO3           1.052e-05   1.052e-05    -4.978    -4.978     0.000    -12.52
   CaHCO3+         1.755e-07   1.712e-07    -6.756    -6.767    -0.011     10.42
   CO2             2.098e-08   2.098e-08    -7.678    -7.678     0.000     34.29
   (CO2)2          8.081e-18   8.082e-18   -17.093   -17.092     0.000     68.57
Ca            1.652e-04
   Ca+2            1.543e-04   1.394e-04    -3.812    -3.856    -0.044    -16.05
   CaCO3           1.052e-05   1.052e-05    -4.978    -4.978     0.000    -12.52
   CaOH+           1.759e-07   1.714e-07    -6.755    -6.766    -0.011     (0)  
   CaHCO3+         1.755e-07   1.712e-07    -6.756    -6.767    -0.011     10.42
H(0)          4.164e-39
   H2              2.082e-39   2.082e-39   -38.681   -38.681     0.000     28.47
O(0)          9.926e-16
   O2              4.963e-16   4.963e-16   -15.304   -15.304     0.000     29.97

------------------------------Saturation indices-------------------------------

  Phase               SI** log IAP   log K(298 K, 316 atm)

  Aragonite        -0.13     -8.17   -8.04  CaCO3
  Calcite           0.00     -8.17   -8.17  CaCO3
  CH4(g)         -121.98   -124.98   -3.00  CH4
  CO2(g)           -6.02     -7.68   -1.66  CO2
  H2(g)           -35.42    -38.68   -3.26  H2
  H2O(g)           -1.40     -0.00    1.40  H2O
  O2(g)           -12.24    -15.30   -3.06  O2

**For a gas, SI = log10(fugacity). Fugacity = pressure * phi / 1 atm.
  For ideal gases, phi = 1.

Reaction step 8.

Using solution 1.	
Using pure phase assemblage 1.	
Using pressure 1.	

-------------------------------Phase assemblage--------------------------------

                                                      Moles in assemblage
Phase               SI  log IAP  log K(T, P)   Initial       Final       Delta

Calcite           0.00    -8.12     -8.12    1.000e+01   1.000e+01  -1.731e-04

-----------------------------Solution composition------------------------------

	Elements           Molality       Moles

	C                 1.731e-04   1.731e-04
	Ca                1.731e-04   1.731e-04

----------------------------Description of solution----------------------------

                                       pH  =   9.864      Charge balance
                                       pe  =   7.821      Adjusted to redox equilibrium
       Specific Conductance (µS/cm, 25°C)  = 50
                          Density (g/cm³)  =   1.01325
                               Volume (L)  =   0.98694
                        Activity of water  =   1.000
                           Ionic strength  =   5.413e-04
                       Mass of water (kg)  =   1.000e+00
                 Total alkalinity (eq/kg)  =   3.462e-04
                       Total CO2 (mol/kg)  =   1.731e-04
                         Temperature (°C)  =  25.00
                           Pressure (atm)  = 369.05
                  Electrical balance (eq)  =  -1.216e-09
 Percent error, 100*(Cat-|An|)/(Cat+|An|)  =  -0.00
                               Iterations  =  17
                                  Total H  = 1.110124e+02
                                  Total O  = 5.550674e+01

----------------------------Distribution of species----------------------------

                                               Log       Log       Log    mole V
   Species          Molality    Activity  Molality  Activity     Gamma   cm³/mol

   OH-             1.036e-04   1.009e-04    -3.985    -3.996    -0.011     -2.88
   H+              1.404e-10   1.369e-10    -9.853    -9.864    -0.011      0.00
   H2O             5.551e+01   1.000e+00     1.744    -0.000     0.000     17.78
C(-4)         0.000e+00
   CH4             0.000e+00   0.000e+00  -125.015  -125.015     0.000     35.89
C(4)          1.731e-04
   HCO3-           1.035e-04   1.009e-04    -3.985    -3.996    -0.011     25.00
   CO3-2           5.771e-05   5.206e-05    -4.239    -4.284    -0.045     -2.23
   CaCO3           1.165e-05   1.165e-05    -4.934    -4.934     0.000    -12.22
   CaHCO3+         1.882e-07   1.834e-07    -6.725    -6.736    -0.011     10.53
   CO2             2.067e-08   2.067e-08    -7.685    -7.685     0.000     34.26
   (CO2)2          7.843e-18   7.844e-18   -17.105   -17.105     0.000     68.52
Ca            1.731e-04
   Ca+2            1.611e-04   1.453e-04    -3.793    -3.838    -0.045    -15.74
   CaCO3           1.165e-05   1.165e-05    -4.934    -4.934     0.000    -12.22
   CaHCO3+         1.882e-07   1.834e-07    -6.725    -6.736    -0.011     10.53
   CaOH+           1.808e-07   1.761e-07    -6.743    -6.754    -0.011     (0)  
H(0)          3.942e-39
   H2              1.971e-39   1.971e-39   -38.705   -38.705     0.000     28.45
O(0)          9.925e-16
   O2              4.962e-16   4.963e-16   -15.304   -15.304     0.000     29.91

------------------------------Saturation indices-------------------------------

  Phase               SI** log IAP   log K(298 K, 369 atm)

  Aragonite        -0.13     -8.12   -8.00  CaCO3
  Calcite           0.00     -8.12   -8.12  CaCO3
  CH4(g)         -121.98   -125.01   -3.04  CH4
  CO2(g)           -5.99     -7.68   -1.69  CO2
  H2(g)           -35.42    -38.71   -3.29  H2
  H2O(g)           -1.39     -0.00    1.39  H2O
  O2(g)           -12.22    -15.30   -3.09  O2

**For a gas, SI = log10(fugacity). Fugacity = pressure * phi / 1 atm.
  For ideal gases, phi = 1.

Reaction step 9.

Using solution 1.	
Using pure phase assemblage 1.	
Using pressure 1.	

-------------------------------Phase assemblage--------------------------------

                                                      Moles in assemblage
Phase               SI  log IAP  log K(T, P)   Initial       Final       Delta

Calcite           0.00    -8.08     -8.08    1.000e+01   1.000e+01  -1.813e-04

-----------------------------Solution composition------------------------------

	Elements           Molality       Moles

	C                 1.813e-04   1.813e-04
	Ca                1.813e-04   1.813e-04

----------------------------Description of solution----------------------------

                                       pH  =   9.858      Charge balance
                                       pe  =   7.826      Adjusted to redox equilibrium
       Specific Conductance (µS/cm, 25°C)  = 53
                          Density (g/cm³)  =   1.01547
                               Volume (L)  =   0.98478
                        Activity of water  =   1.000
                           Ionic strength  =   5.662e-04
                       Mass of water (kg)  =   1.000e+00
                 Total alkalinity (eq/kg)  =   3.625e-04
                       Total CO2 (mol/kg)  =   1.813e-04
                         Temperature (°C)  =  25.00
                           Pressure (atm)  = 421.63
                  Electrical balance (eq)  =  -1.215e-09
 Percent error, 100*(Cat-|An|)/(Cat+|An|)  =  -0.00
                               Iterations  =  17
                                  Total H  = 1.110124e+02
                                  Total O  = 5.550676e+01

----------------------------Distribution of species----------------------------

                                               Log       Log       Log    mole V
   Species          Molality    Activity  Molality  Activity     Gamma   cm³/mol

   OH-             1.065e-04   1.037e-04    -3.973    -3.984    -0.012     -2.72
   H+              1.424e-10   1.388e-10    -9.846    -9.858    -0.011      0.00
   H2O             5.551e+01   1.000e+00     1.744    -0.000     0.000     17.74
C(-4)         0.000e+00
   CH4             0.000e+00   0.000e+00  -125.046  -125.046     0.000     35.94
C(4)          1.813e-04
   HCO3-           1.064e-04   1.037e-04    -3.973    -3.984    -0.011     25.05
   CO3-2           6.176e-05   5.559e-05    -4.209    -4.255    -0.046     -1.84
   CaCO3           1.288e-05   1.288e-05    -4.890    -4.890     0.000    -11.92
   CaHCO3+         2.017e-07   1.965e-07    -6.695    -6.707    -0.011     10.63
   CO2             2.036e-08   2.036e-08    -7.691    -7.691     0.000     34.24
   (CO2)2          7.608e-18   7.609e-18   -17.119   -17.119     0.000     68.47
Ca            1.813e-04
   Ca+2            1.680e-04   1.512e-04    -3.775    -3.820    -0.046    -15.44
   CaCO3           1.288e-05   1.288e-05    -4.890    -4.890     0.000    -11.92
   CaHCO3+         2.017e-07   1.965e-07    -6.695    -6.707    -0.011     10.63
   CaOH+           1.857e-07   1.808e-07    -6.731    -6.743    -0.012     (0)  
H(0)          3.731e-39
   H2              1.866e-39   1.866e-39   -38.729   -38.729     0.000     28.43
O(0)          9.926e-16
   O2              4.963e-16   4.964e-16   -15.304   -15.304     0.000     29.85

------------------------------Saturation indices-------------------------------

  Phase               SI** log IAP   log K(298 K, 422 atm)

  Aragonite        -0.12     -8.08   -7.95  CaCO3
  Calcite           0.00     -8.08   -8.08  CaCO3
  CH4(g)         -121.98   -125.05   -3.07  CH4
  CO2(g)           -5.97     -7.69   -1.72  CO2
  H2(g)           -35.42    -38.73   -3.31  H2
  H2O(g)           -1.37     -0.00    1.37  H2O
  O2(g)           -12.19    -15.30   -3.12  O2

**For a gas, SI = log10(fugacity). Fugacity = pressure * phi / 1 atm.
  For ideal gases, phi = 1.

Reaction step 10.

Using solution 1.	
Using pure phase assemblage 1.	
Using pressure 1.	

-------------------------------Phase assemblage--------------------------------

                                                      Moles in assemblage
Phase               SI  log IAP  log K(T, P)   Initial       Final       Delta

Calcite           0.00    -8.03     -8.03    1.000e+01   1.000e+01  -1.898e-04

-----------------------------Solution composition------------------------------

	Elements           Molality       Moles

	C                 1.898e-04   1.898e-04
	Ca                1.898e-04   1.898e-04

----------------------------Description of solution----------------------------

                                       pH  =   9.852      Charge balance
                                       pe  =   7.831      Adjusted to redox equilibrium
       Specific Conductance (µS/cm, 25°C)  = 55
                          Density (g/cm³)  =   1.01768
                               Volume (L)  =   0.98265
                        Activity of water  =   1.000
                           Ionic strength  =   5.917e-04
                       Mass of water (kg)  =   1.000e+00
                 Total alkalinity (eq/kg)  =   3.795e-04
                       Total CO2 (mol/kg)  =   1.898e-04
                         Temperature (°C)  =  25.00
                           Pressure (atm)  = 474.21
                  Electrical balance (eq)  =  -1.217e-09
 Percent error, 100*(Cat-|An|)/(Cat+|An|)  =  -0.00
                               Iterations  =  18
                                  Total H  = 1.110124e+02
                                  Total O  = 5.550679e+01

----------------------------Distribution of species----------------------------

                                               Log       Log       Log    mole V
   Species          Molality    Activity  Molality  Activity     Gamma   cm³/mol

   OH-             1.094e-04   1.065e-04    -3.961    -3.973    -0.012     -2.57
   H+              1.445e-10   1.407e-10    -9.840    -9.852    -0.011      0.00
   H2O             5.551e+01   1.000e+00     1.744    -0.000     0.000     17.70
C(-4)         0.000e+00
   CH4             0.000e+00   0.000e+00  -125.077  -125.077     0.000     35.99
C(4)          1.898e-04
   HCO3-           1.093e-04   1.064e-04    -3.961    -3.973    -0.012     25.09
   CO3-2           6.597e-05   5.926e-05    -4.181    -4.227    -0.047     -1.45
   CaCO3           1.423e-05   1.423e-05    -4.847    -4.847     0.000    -11.64
   CaHCO3+         2.161e-07   2.104e-07    -6.665    -6.677    -0.012     10.74
   CO2             2.004e-08   2.005e-08    -7.698    -7.698     0.000     34.21
   (CO2)2          7.374e-18   7.375e-18   -17.132   -17.132     0.000     68.43
Ca            1.898e-04
   Ca+2            1.751e-04   1.573e-04    -3.757    -3.803    -0.047    -15.14
   CaCO3           1.423e-05   1.423e-05    -4.847    -4.847     0.000    -11.64
   CaHCO3+         2.161e-07   2.104e-07    -6.665    -6.677    -0.012     10.74
   CaOH+           1.906e-07   1.855e-07    -6.720    -6.732    -0.012     (0)  
H(0)          3.532e-39
   H2              1.766e-39   1.766e-39   -38.753   -38.753     0.000     28.41
O(0)          9.925e-16
   O2              4.963e-16   4.963e-16   -15.304   -15.304     0.000     29.79

------------------------------Saturation indices-------------------------------

  Phase               SI** log IAP   log K(298 K, 474 atm)

  Aragonite        -0.12     -8.03   -7.91  CaCO3
  Calcite           0.00     -8.03   -8.03  CaCO3
  CH4(g)         -121.97   -125.08   -3.10  CH4
  CO2(g)           -5.94     -7.70   -1.76  CO2
  H2(g)           -35.41    -38.75   -3.34  H2
  H2O(g)           -1.35     -0.00    1.35  H2O
  O2(g)           -12.16    -15.30   -3.14  O2

**For a gas, SI = log10(fugacity). Fugacity = pressure * phi / 1 atm.
  For ideal gases, phi = 1.

Reaction step 11.

Using solution 1.	
Using pure phase assemblage 1.	
Using pressure 1.	

-------------------------------Phase assemblage--------------------------------

                                                      Moles in assemblage
Phase               SI  log IAP  log K(T, P)   Initial       Final       Delta

Calcite           0.00    -7.99     -7.99    1.000e+01   1.000e+01  -1.985e-04

-----------------------------Solution composition------------------------------

	Elements           Molality       Moles

	C                 1.985e-04   1.985e-04
	Ca                1.985e-04   1.985e-04

----------------------------Description of solution----------------------------

                                       pH  =   9.846      Charge balance
                                       pe  =   7.835      Adjusted to redox equilibrium
       Specific Conductance (µS/cm, 25°C)  = 57
                          Density (g/cm³)  =   1.01986
                               Volume (L)  =   0.98055
                        Activity of water  =   1.000
                           Ionic strength  =   6.180e-04
                       Mass of water (kg)  =   1.000e+00
                 Total alkalinity (eq/kg)  =   3.971e-04
                       Total CO2 (mol/kg)  =   1.985e-04
                         Temperature (°C)  =  25.00
                           Pressure (atm)  = 526.79
                  Electrical balance (eq)  =  -1.217e-09
 Percent error, 100*(Cat-|An|)/(Cat+|An|)  =  -0.00
                               Iterations  =  18
                                  Total H  = 1.110124e+02
                                  Total O  = 5.550681e+01

----------------------------Distribution of species----------------------------

                                               Log       Log       Log    mole V
   Species          Molality    Activity  Molality  Activity     Gamma   cm³/mol

   OH-             1.123e-04   1.093e-04    -3.950    -3.962    -0.012     -2.43
   H+              1.465e-10   1.427e-10    -9.834    -9.846    -0.012      0.00
   H2O             5.551e+01   1.000e+00     1.744    -0.000     0.000     17.67
C(-4)         0.000e+00
   CH4             0.000e+00   0.000e+00  -125.109  -125.109     0.000     36.04
C(4)          1.985e-04
   HCO3-           1.122e-04   1.092e-04    -3.950    -3.962    -0.012     25.13
   CO3-2           7.034e-05   6.306e-05    -4.153    -4.200    -0.047     -1.08
   CaCO3           1.570e-05   1.570e-05    -4.804    -4.804     0.000    -11.37
   CaHCO3+         2.313e-07   2.251e-07    -6.636    -6.648    -0.012     10.84
   CO2             1.973e-08   1.973e-08    -7.705    -7.705     0.000     34.19
   (CO2)2          7.144e-18   7.145e-18   -17.146   -17.146     0.000     68.38
Ca            1.985e-04
   Ca+2            1.824e-04   1.635e-04    -3.739    -3.786    -0.047    -14.86
   CaCO3           1.570e-05   1.570e-05    -4.804    -4.804     0.000    -11.37
   CaHCO3+         2.313e-07   2.251e-07    -6.636    -6.648    -0.012     10.84
   CaOH+           1.955e-07   1.902e-07    -6.709    -6.721    -0.012     (0)  
H(0)          3.344e-39
   H2              1.672e-39   1.672e-39   -38.777   -38.777     0.000     28.39
O(0)          9.924e-16
   O2              4.962e-16   4.963e-16   -15.304   -15.304     0.000     29.73

------------------------------Saturation indices-------------------------------

  Phase               SI** log IAP   log K(298 K, 527 atm)

  Aragonite        -0.12     -7.99   -7.87  CaCO3
  Calcite           0.00     -7.99   -7.99  CaCO3
  CH4(g)         -121.97   -125.11   -3.14  CH4
  CO2(g)           -5.92     -7.70   -1.79  CO2
  H2(g)           -35.41    -38.78   -3.37  H2
  H2O(g)           -1.34     -0.00    1.34  H2O
  O2(g)           -12.13    -15.30   -3.17  O2

**For a gas, SI = log10(fugacity). Fugacity = pressure * phi / 1 atm.
  For ideal gases, phi = 1.

Reaction step 12.

Using solution 1.	
Using pure phase assemblage 1.	
Using pressure 1.	

-------------------------------Phase assemblage--------------------------------

                                                      Moles in assemblage
Phase               SI  log IAP  log K(T, P)   Initial       Final       Delta

Calcite           0.00    -7.94     -7.94    1.000e+01   1.000e+01  -2.076e-04

-----------------------------Solution composition------------------------------

	Elements           Molality       Moles

	C                 2.076e-04   2.076e-04
	Ca                2.076e-04   2.076e-04

----------------------------Description of solution----------------------------

                                       pH  =   9.840      Charge balance
                                       pe  =   7.840      Adjusted to redox equilibrium
       Specific Conductance (µS/cm, 25°C)  = 59
                          Density (g/cm³)  =   1.02202
                               Volume (L)  =   0.97848
                        Activity of water  =   1.000
                           Ionic strength  =   6.449e-04
                       Mass of water (kg)  =   1.000e+00
                 Total alkalinity (eq/kg)  =   4.152e-04
                       Total CO2 (mol/kg)  =   2.076e-04
                         Temperature (°C)  =  25.00
                           Pressure (atm)  = 579.37
                  Electrical balance (eq)  =  -1.217e-09
 Percent error, 100*(Cat-|An|)/(Cat+|An|)  =  -0.00
                               Iterations  =  18
                                  Total H  = 1.110124e+02
                                  Total O  = 5.550684e+01

----------------------------Distribution of species----------------------------

                                               Log       Log       Log    mole V
   Species          Molality    Activity  Molality  Activity     Gamma   cm³/mol

   OH-             1.153e-04   1.121e-04    -3.938    -3.951    -0.012     -2.29
   H+              1.486e-10   1.446e-10    -9.828    -9.840    -0.012      0.00
   H2O             5.551e+01   1.000e+00     1.744    -0.000     0.000     17.63
C(-4)         0.000e+00
   CH4             0.000e+00   0.000e+00  -125.141  -125.140     0.000     36.08
C(4)          2.076e-04
   HCO3-           1.152e-04   1.120e-04    -3.939    -3.951    -0.012     25.17
   CO3-2           7.487e-05   6.700e-05    -4.126    -4.174    -0.048     -0.72
   CaCO3           1.731e-05   1.731e-05    -4.762    -4.762     0.000    -11.11
   CaHCO3+         2.476e-07   2.408e-07    -6.606    -6.618    -0.012     10.93
   CO2             1.941e-08   1.941e-08    -7.712    -7.712     0.000     34.17
   (CO2)2          6.917e-18   6.918e-18   -17.160   -17.160     0.000     68.33
Ca            2.076e-04
   Ca+2            1.899e-04   1.699e-04    -3.722    -3.770    -0.048    -14.59
   CaCO3           1.731e-05   1.731e-05    -4.762    -4.762     0.000    -11.11
   CaHCO3+         2.476e-07   2.408e-07    -6.606    -6.618    -0.012     10.93
   CaOH+           2.005e-07   1.949e-07    -6.698    -6.710    -0.012     (0)  
H(0)          3.165e-39
   H2              1.582e-39   1.583e-39   -38.801   -38.801     0.000     28.38
O(0)          9.927e-16
   O2              4.964e-16   4.964e-16   -15.304   -15.304     0.000     29.68

------------------------------Saturation indices-------------------------------

  Phase               SI** log IAP   log K(298 K, 579 atm)

  Aragonite        -0.11     -7.94   -7.83  CaCO3
  Calcite           0.00     -7.94   -7.94  CaCO3
  CH4(g)         -121.97   -125.14   -3.17  CH4
  CO2(g)           -5.89     -7.71   -1.82  CO2
  H2(g)           -35.41    -38.80   -3.39  H2
  H2O(g)           -1.32     -0.00    1.32  H2O
  O2(g)           -12.11    -15.30   -3.20  O2

**For a gas, SI = log10(fugacity). Fugacity = pressure * phi / 1 atm.
  For ideal gases, phi = 1.

Reaction step 13.

Using solution 1.	
Using pure phase assemblage 1.	
Using pressure 1.	

-------------------------------Phase assemblage--------------------------------

                                                      Moles in assemblage
Phase               SI  log IAP  log K(T, P)   Initial       Final       Delta

Calcite           0.00    -7.90     -7.90    1.000e+01   1.000e+01  -2.170e-04

-----------------------------Solution composition------------------------------

	Elements           Molality       Moles

	C                 2.170e-04   2.170e-04
	Ca                2.170e-04   2.170e-04

----------------------------Description of solution----------------------------

                                       pH  =   9.834      Charge balance
                                       pe  =   7.844      Adjusted to redox equilibrium
       Specific Conductance (µS/cm, 25°C)  = 61
                          Density (g/cm³)  =   1.02415
                               Volume (L)  =   0.97644
                        Activity of water  =   1.000
                           Ionic strength  =   6.725e-04
                       Mass of water (kg)  =   1.000e+00
                 Total alkalinity (eq/kg)  =   4.341e-04
                       Total CO2 (mol/kg)  =   2.170e-04
                         Temperature (°C)  =  25.00
                           Pressure (atm)  = 631.95
                  Electrical balance (eq)  =  -1.217e-09
 Percent error, 100*(Cat-|An|)/(Cat+|An|)  =  -0.00
                               Iterations  =  18
                                  Total H  = 1.110124e+02
                                  Total O  = 5.550687e+01

----------------------------Distribution of species----------------------------

                                               Log       Log       Log    mole V
   Species          Molality    Activity  Molality  Activity     Gamma   cm³/mol

   OH-             1.182e-04   1.149e-04    -3.927    -3.940    -0.012     -2.15
   H+              1.507e-10   1.466e-10    -9.822    -9.834    -0.012      0.00
   H2O             5.551e+01   1.000e+00     1.744    -0.000     0.000     17.59
C(-4)         0.000e+00
   CH4             0.000e+00   0.000e+00  -125.172  -125.172     0.000     36.13
C(4)          2.170e-04
   HCO3-           1.181e-04   1.148e-04    -3.928    -3.940    -0.012     25.21
   CO3-2           7.957e-05   7.106e-05    -4.099    -4.148    -0.049     -0.37
   CaCO3           1.906e-05   1.907e-05    -4.720    -4.720     0.000    -10.85
   CaHCO3+         2.648e-07   2.575e-07    -6.577    -6.589    -0.012     11.02
   CO2             1.909e-08   1.910e-08    -7.719    -7.719     0.000     34.14
   (CO2)2          6.693e-18   6.694e-18   -17.174   -17.174     0.000     68.29
Ca            2.170e-04
   Ca+2            1.975e-04   1.764e-04    -3.704    -3.754    -0.049    -14.32
   CaCO3           1.906e-05   1.907e-05    -4.720    -4.720     0.000    -10.85
   CaHCO3+         2.648e-07   2.575e-07    -6.577    -6.589    -0.012     11.02
   CaOH+           2.054e-07   1.997e-07    -6.687    -6.700    -0.012     (0)  
H(0)          2.996e-39
   H2              1.498e-39   1.498e-39   -38.824   -38.824     0.000     28.36
O(0)          9.926e-16
   O2              4.963e-16   4.964e-16   -15.304   -15.304     0.000     29.62

------------------------------Saturation indices-------------------------------

  Phase               SI** log IAP   log K(298 K, 632 atm)

  Aragonite        -0.11     -7.90   -7.79  CaCO3
  Calcite           0.00     -7.90   -7.90  CaCO3
  CH4(g)         -121.97   -125.17   -3.21  CH4
  CO2(g)           -5.87     -7.72   -1.85  CO2
  H2(g)           -35.41    -38.82   -3.42  H2
  H2O(g)           -1.31     -0.00    1.31  H2O
  O2(g)           -12.08    -15.30   -3.22  O2

**For a gas, SI = log10(fugacity). Fugacity = pressure * phi / 1 atm.
  For ideal gases, phi = 1.

Reaction step 14.

Using solution 1.	
Using pure phase assemblage 1.	
Using pressure 1.	

-------------------------------Phase assemblage--------------------------------

                                                      Moles in assemblage
Phase               SI  log IAP  log K(T, P)   Initial       Final       Delta

Calcite          -0.00    -7.86     -7.86    1.000e+01   1.000e+01  -2.268e-04

-----------------------------Solution composition------------------------------

	Elements           Molality       Moles

	C                 2.268e-04   2.268e-04
	Ca                2.268e-04   2.268e-04

----------------------------Description of solution----------------------------

                                       pH  =   9.828      Charge balance
                                       pe  =   7.849      Adjusted to redox equilibrium
       Specific Conductance (µS/cm, 25°C)  = 63
                          Density (g/cm³)  =   1.02626
                               Volume (L)  =   0.97443
                        Activity of water  =   1.000
                           Ionic strength  =   7.008e-04
                       Mass of water (kg)  =   1.000e+00
                 Total alkalinity (eq/kg)  =   4.536e-04
                       Total CO2 (mol/kg)  =   2.268e-04
                         Temperature (°C)  =  25.00
                           Pressure (atm)  = 684.53
                  Electrical balance (eq)  =  -1.217e-09
 Percent error, 100*(Cat-|An|)/(Cat+|An|)  =  -0.00
                               Iterations  =  18
                                  Total H  = 1.110124e+02
                                  Total O  = 5.550690e+01

----------------------------Distribution of species----------------------------

                                               Log       Log       Log    mole V
   Species          Molality    Activity  Molality  Activity     Gamma   cm³/mol

   OH-             1.212e-04   1.177e-04    -3.917    -3.929    -0.013     -2.01
   H+              1.528e-10   1.486e-10    -9.816    -9.828    -0.012      0.00
   H2O             5.551e+01   1.000e+00     1.744    -0.000     0.000     17.56
C(-4)         0.000e+00
   CH4             0.000e+00   0.000e+00  -125.204  -125.204     0.000     36.17
C(4)          2.268e-04
   HCO3-           1.211e-04   1.176e-04    -3.917    -3.929    -0.012     25.25
   CO3-2           8.443e-05   7.525e-05    -4.074    -4.123    -0.050     -0.03
   CaCO3           2.098e-05   2.098e-05    -4.678    -4.678     0.000    -10.60
   CaHCO3+         2.832e-07   2.752e-07    -6.548    -6.560    -0.012     11.12
   CO2             1.878e-08   1.878e-08    -7.726    -7.726     0.000     34.12
   (CO2)2          6.474e-18   6.475e-18   -17.189   -17.189     0.000     68.24
Ca            2.268e-04
   Ca+2            2.053e-04   1.830e-04    -3.688    -3.738    -0.050    -14.06
   CaCO3           2.098e-05   2.098e-05    -4.678    -4.678     0.000    -10.60
   CaHCO3+         2.832e-07   2.752e-07    -6.548    -6.560    -0.012     11.12
   CaOH+           2.104e-07   2.044e-07    -6.677    -6.690    -0.013     (0)  
H(0)          2.836e-39
   H2              1.418e-39   1.418e-39   -38.848   -38.848     0.000     28.34
O(0)          9.926e-16
   O2              4.963e-16   4.964e-16   -15.304   -15.304     0.000     29.57

------------------------------Saturation indices-------------------------------

  Phase               SI** log IAP   log K(298 K, 685 atm)

  Aragonite        -0.11     -7.86   -7.75  CaCO3
  Calcite          -0.00     -7.86   -7.86  CaCO3
  CH4(g)         -121.96   -125.20   -3.24  CH4
  CO2(g)           -5.84     -7.73   -1.88  CO2
  H2(g)           -35.40    -38.85   -3.44  H2
  H2O(g)           -1.29     -0.00    1.29  H2O
  O2(g)           -12.05    -15.30   -3.25  O2

**For a gas, SI = log10(fugacity). Fugacity = pressure * phi / 1 atm.
  For ideal gases, phi = 1.

Reaction step 15.

Using solution 1.	
Using pure phase assemblage 1.	
Using pressure 1.	

-------------------------------Phase assemblage--------------------------------

                                                      Moles in assemblage
Phase               SI  log IAP  log K(T, P)   Initial       Final       Delta

Calcite           0.00    -7.82     -7.82    1.000e+01   1.000e+01  -2.369e-04

-----------------------------Solution composition------------------------------

	Elements           Molality       Moles

	C                 2.369e-04   2.369e-04
	Ca                2.369e-04   2.369e-04

----------------------------Description of solution----------------------------

                                       pH  =   9.822      Charge balance
                                       pe  =   7.854      Adjusted to redox equilibrium
       Specific Conductance (µS/cm, 25°C)  = 65
                          Density (g/cm³)  =   1.02835
                               Volume (L)  =   0.97245
                        Activity of water  =   1.000
                           Ionic strength  =   7.298e-04
                       Mass of water (kg)  =   1.000e+00
                 Total alkalinity (eq/kg)  =   4.738e-04
                       Total CO2 (mol/kg)  =   2.369e-04
                         Temperature (°C)  =  25.00
                           Pressure (atm)  = 737.11
                  Electrical balance (eq)  =  -1.217e-09
 Percent error, 100*(Cat-|An|)/(Cat+|An|)  =  -0.00
                               Iterations  =  18
                                  Total H  = 1.110124e+02
                                  Total O  = 5.550693e+01

----------------------------Distribution of species----------------------------

                                               Log       Log       Log    mole V
   Species          Molality    Activity  Molality  Activity     Gamma   cm³/mol

   OH-             1.242e-04   1.205e-04    -3.906    -3.919    -0.013     -1.88
   H+              1.549e-10   1.506e-10    -9.810    -9.822    -0.012      0.00
   H2O             5.551e+01   1.000e+00     1.744    -0.000     0.000     17.52
C(-4)         0.000e+00
   CH4             0.000e+00   0.000e+00  -125.236  -125.236     0.000     36.20
C(4)          2.369e-04
   HCO3-           1.240e-04   1.205e-04    -3.906    -3.919    -0.013     25.29
   CO3-2           8.946e-05   7.957e-05    -4.048    -4.099    -0.051      0.31
   CaCO3           2.307e-05   2.307e-05    -4.637    -4.637     0.000    -10.37
   CaHCO3+         3.026e-07   2.940e-07    -6.519    -6.532    -0.013     11.20
   CO2             1.846e-08   1.847e-08    -7.734    -7.734     0.000     34.10
   (CO2)2          6.259e-18   6.260e-18   -17.203   -17.203     0.000     68.20
Ca            2.369e-04
   Ca+2            2.133e-04   1.897e-04    -3.671    -3.722    -0.051    -13.81
   CaCO3           2.307e-05   2.307e-05    -4.637    -4.637     0.000    -10.37
   CaHCO3+         3.026e-07   2.940e-07    -6.519    -6.532    -0.013     11.20
   CaOH+           2.154e-07   2.091e-07    -6.667    -6.680    -0.013     (0)  
H(0)          2.685e-39
   H2              1.342e-39   1.343e-39   -38.872   -38.872     0.000     28.33
O(0)          9.928e-16
   O2              4.964e-16   4.965e-16   -15.304   -15.304     0.000     29.52

------------------------------Saturation indices-------------------------------

  Phase               SI** log IAP   log K(298 K, 737 atm)

  Aragonite        -0.11     -7.82   -7.71  CaCO3
  Calcite           0.00     -7.82   -7.82  CaCO3
  CH4(g)         -121.96   -125.24   -3.27  CH4
  CO2(g)           -5.82     -7.73   -1.91  CO2
  H2(g)           -35.40    -38.87   -3.47  H2
  H2O(g)           -1.27     -0.00    1.27  H2O
  O2(g)           -12.03    -15.30   -3.28  O2

**For a gas, SI = log10(fugacity). Fugacity = pressure * phi / 1 atm.
  For ideal gases, phi = 1.

Reaction step 16.

Using solution 1.	
Using pure phase assemblage 1.	
Using pressure 1.	

-------------------------------Phase assemblage--------------------------------

                                                      Moles in assemblage
Phase               SI  log IAP  log K(T, P)   Initial       Final       Delta

Calcite           0.00    -7.78     -7.78    1.000e+01   1.000e+01  -2.473e-04

-----------------------------Solution composition------------------------------

	Elements           Molality       Moles

	C                 2.473e-04   2.473e-04
	Ca                2.473e-04   2.473e-04

----------------------------Description of solution----------------------------

                                       pH  =   9.817      Charge balance
                                       pe  =   7.858      Adjusted to redox equilibrium
       Specific Conductance (µS/cm, 25°C)  = 68
                          Density (g/cm³)  =   1.03042
                               Volume (L)  =   0.97050
                        Activity of water  =   1.000
                           Ionic strength  =   7.596e-04
                       Mass of water (kg)  =   1.000e+00
                 Total alkalinity (eq/kg)  =   4.947e-04
                       Total CO2 (mol/kg)  =   2.473e-04
                         Temperature (°C)  =  25.00
                           Pressure (atm)  = 789.68
                  Electrical balance (eq)  =  -1.217e-09
 Percent error, 100*(Cat-|An|)/(Cat+|An|)  =  -0.00
                               Iterations  =  18
                                  Total H  = 1.110124e+02
                                  Total O  = 5.550696e+01

----------------------------Distribution of species----------------------------

                                               Log       Log       Log    mole V
   Species          Molality    Activity  Molality  Activity     Gamma   cm³/mol

   OH-             1.271e-04   1.234e-04    -3.896    -3.909    -0.013     -1.75
   H+              1.570e-10   1.526e-10    -9.804    -9.817    -0.013      0.00
   H2O             5.551e+01   1.000e+00     1.744    -0.000     0.000     17.48
C(-4)         0.000e+00
   CH4             0.000e+00   0.000e+00  -125.268  -125.268     0.000     36.24
C(4)          2.473e-04
   HCO3-           1.270e-04   1.233e-04    -3.896    -3.909    -0.013     25.33
   CO3-2           9.465e-05   8.403e-05    -4.024    -4.076    -0.052      0.63
   CaCO3           2.534e-05   2.535e-05    -4.596    -4.596     0.000    -10.13
   CaHCO3+         3.233e-07   3.139e-07    -6.490    -6.503    -0.013     11.29
   CO2             1.815e-08   1.815e-08    -7.741    -7.741     0.000     34.08
   (CO2)2          6.049e-18   6.050e-18   -17.218   -17.218     0.000     68.15
Ca            2.473e-04
   Ca+2            2.215e-04   1.966e-04    -3.655    -3.706    -0.052    -13.57
   CaCO3           2.534e-05   2.535e-05    -4.596    -4.596     0.000    -10.13
   CaHCO3+         3.233e-07   3.139e-07    -6.490    -6.503    -0.013     11.29
   CaOH+           2.204e-07   2.138e-07    -6.657    -6.670    -0.013     (0)  
H(0)          2.542e-39
   H2              1.271e-39   1.271e-39   -38.896   -38.896     0.000     28.31
O(0)          9.924e-16
   O2              4.962e-16   4.963e-16   -15.304   -15.304     0.000     29.47

------------------------------Saturation indices-------------------------------

  Phase               SI** log IAP   log K(298 K, 790 atm)

  Aragonite        -0.10     -7.78   -7.68  CaCO3
  Calcite           0.00     -7.78   -7.78  CaCO3
  CH4(g)         -121.96   -125.27   -3.31  CH4
  CO2(g)           -5.80     -7.74   -1.95  CO2
  H2(g)           -35.40    -38.90   -3.50  H2
  H2O(g)           -1.26     -0.00    1.26  H2O
  O2(g)           -12.00    -15.30   -3.30  O2

**For a gas, SI = log10(fugacity). Fugacity = pressure * phi / 1 atm.
  For ideal gases, phi = 1.

Reaction step 17.

Using solution 1.	
Using pure phase assemblage 1.	
Using pressure 1.	

-------------------------------Phase assemblage--------------------------------

                                                      Moles in assemblage
Phase               SI  log IAP  log K(T, P)   Initial       Final       Delta

Calcite           0.00    -7.74     -7.74    1.000e+01   1.000e+01  -2.582e-04

-----------------------------Solution composition------------------------------

	Elements           Molality       Moles

	C                 2.582e-04   2.582e-04
	Ca                2.582e-04   2.582e-04

----------------------------Description of solution----------------------------

                                       pH  =   9.811      Charge balance
                                       pe  =   7.863      Adjusted to redox equilibrium
       Specific Conductance (µS/cm, 25°C)  = 70
                          Density (g/cm³)  =   1.03247
                               Volume (L)  =   0.96857
                        Activity of water  =   1.000
                           Ionic strength  =   7.900e-04
                       Mass of water (kg)  =   1.000e+00
                 Total alkalinity (eq/kg)  =   5.164e-04
                       Total CO2 (mol/kg)  =   2.582e-04
                         Temperature (°C)  =  25.00
                           Pressure (atm)  = 842.26
                  Electrical balance (eq)  =  -1.217e-09
 Percent error, 100*(Cat-|An|)/(Cat+|An|)  =  -0.00
                               Iterations  =  18
                                  Total H  = 1.110124e+02
                                  Total O  = 5.550699e+01

----------------------------Distribution of species----------------------------

                                               Log       Log       Log    mole V
   Species          Molality    Activity  Molality  Activity     Gamma   cm³/mol

   OH-             1.301e-04   1.262e-04    -3.886    -3.899    -0.013     -1.63
   H+              1.592e-10   1.546e-10    -9.798    -9.811    -0.013      0.00
   H2O             5.551e+01   1.000e+00     1.744    -0.000     0.000     17.45
C(-4)         0.000e+00
   CH4             0.000e+00   0.000e+00  -125.301  -125.301     0.000     36.28
C(4)          2.582e-04
   HCO3-           1.300e-04   1.261e-04    -3.886    -3.899    -0.013     25.37
   CO3-2           1.000e-04   8.861e-05    -4.000    -4.053    -0.053      0.95
   CaCO3           2.782e-05   2.783e-05    -4.556    -4.556     0.000     -9.91
   CaHCO3+         3.453e-07   3.351e-07    -6.462    -6.475    -0.013     11.37
   CO2             1.784e-08   1.784e-08    -7.749    -7.749     0.000     34.05
   (CO2)2          5.843e-18   5.844e-18   -17.233   -17.233     0.000     68.11
Ca            2.582e-04
   Ca+2            2.298e-04   2.036e-04    -3.639    -3.691    -0.053    -13.34
   CaCO3           2.782e-05   2.783e-05    -4.556    -4.556     0.000     -9.91
   CaHCO3+         3.453e-07   3.351e-07    -6.462    -6.475    -0.013     11.37
   CaOH+           2.254e-07   2.186e-07    -6.647    -6.660    -0.013     (0)  
H(0)          2.406e-39
   H2              1.203e-39   1.203e-39   -38.920   -38.920     0.000     28.30
O(0)          9.926e-16
   O2              4.963e-16   4.964e-16   -15.304   -15.304     0.000     29.43

------------------------------Saturation indices-------------------------------

  Phase               SI** log IAP   log K(298 K, 842 atm)

  Aragonite        -0.10     -7.74   -7.64  CaCO3
  Calcite           0.00     -7.74   -7.74  CaCO3
  CH4(g)         -121.96   -125.30   -3.34  CH4
  CO2(g)           -5.77     -7.75   -1.98  CO2
  H2(g)           -35.40    -38.92   -3.52  H2
  H2O(g)           -1.24     -0.00    1.24  H2O
  O2(g)           -11.97    -15.30   -3.33  O2

**For a gas, SI = log10(fugacity). Fugacity = pressure * phi / 1 atm.
  For ideal gases, phi = 1.

Reaction step 18.

Using solution 1.	
Using pure phase assemblage 1.	
Using pressure 1.	

-------------------------------Phase assemblage--------------------------------

                                                      Moles in assemblage
Phase               SI  log IAP  log K(T, P)   Initial       Final       Delta

Calcite           0.00    -7.71     -7.71    1.000e+01   1.000e+01  -2.694e-04

-----------------------------Solution composition------------------------------

	Elements           Molality       Moles

	C                 2.694e-04   2.694e-04
	Ca                2.694e-04   2.694e-04

----------------------------Description of solution----------------------------

                                       pH  =   9.805      Charge balance
                                       pe  =   7.867      Adjusted to redox equilibrium
       Specific Conductance (µS/cm, 25°C)  = 72
                          Density (g/cm³)  =   1.03451
                               Volume (L)  =   0.96667
                        Activity of water  =   1.000
                           Ionic strength  =   8.211e-04
                       Mass of water (kg)  =   1.000e+00
                 Total alkalinity (eq/kg)  =   5.389e-04
                       Total CO2 (mol/kg)  =   2.694e-04
                         Temperature (°C)  =  25.00
                           Pressure (atm)  = 894.84
                  Electrical balance (eq)  =  -1.216e-09
 Percent error, 100*(Cat-|An|)/(Cat+|An|)  =  -0.00
                               Iterations  =  18
                                  Total H  = 1.110124e+02
                                  Total O  = 5.550703e+01

----------------------------Distribution of species----------------------------

                                               Log       Log       Log    mole V
   Species          Molality    Activity  Molality  Activity     Gamma   cm³/mol

   OH-             1.332e-04   1.291e-04    -3.876    -3.889    -0.014     -1.51
   H+              1.613e-10   1.566e-10    -9.792    -9.805    -0.013      0.00
   H2O             5.551e+01   1.000e+00     1.744    -0.000     0.000     17.42
C(-4)         0.000e+00
   CH4             0.000e+00   0.000e+00  -125.333  -125.333     0.000     36.31
C(4)          2.694e-04
   HCO3-           1.330e-04   1.290e-04    -3.876    -3.890    -0.013     25.40
   CO3-2           1.055e-04   9.333e-05    -3.977    -4.030    -0.053      1.26
   CaCO3           3.052e-05   3.053e-05    -4.515    -4.515     0.000     -9.69
   CaHCO3+         3.687e-07   3.576e-07    -6.433    -6.447    -0.013     11.45
   CO2             1.753e-08   1.753e-08    -7.756    -7.756     0.000     34.03
   (CO2)2          5.641e-18   5.643e-18   -17.249   -17.249     0.000     68.06
Ca            2.694e-04
   Ca+2            2.383e-04   2.107e-04    -3.623    -3.676    -0.053    -13.11
   CaCO3           3.052e-05   3.053e-05    -4.515    -4.515     0.000     -9.69
   CaHCO3+         3.687e-07   3.576e-07    -6.433    -6.447    -0.013     11.45
   CaOH+           2.304e-07   2.233e-07    -6.638    -6.651    -0.014     (0)  
H(0)          2.278e-39
   H2              1.139e-39   1.139e-39   -38.943   -38.943     0.000     28.28
O(0)          9.926e-16
   O2              4.963e-16   4.964e-16   -15.304   -15.304     0.000     29.38

------------------------------Saturation indices-------------------------------

  Phase               SI** log IAP   log K(298 K, 895 atm)

  Aragonite        -0.10     -7.71   -7.61  CaCO3
  Calcite           0.00     -7.71   -7.71  CaCO3
  CH4(g)         -121.96   -125.33   -3.38  CH4
  CO2(g)           -5.75     -7.76   -2.01  CO2
  H2(g)           -35.39    -38.94   -3.55  H2
  H2O(g)           -1.23     -0.00    1.23  H2O
  O2(g)           -11.95    -15.30   -3.36  O2

**For a gas, SI = log10(fugacity). Fugacity = pressure * phi / 1 atm.
  For ideal gases, phi = 1.

Reaction step 19.

Using solution 1.	
Using pure phase assemblage 1.	
Using pressure 1.	

-------------------------------Phase assemblage--------------------------------

                                                      Moles in assemblage
Phase               SI  log IAP  log K(T, P)   Initial       Final       Delta

Calcite           0.00    -7.67     -7.67    1.000e+01   1.000e+01  -2.811e-04

-----------------------------Solution composition------------------------------

	Elements           Molality       Moles

	C                 2.811e-04   2.811e-04
	Ca                2.811e-04   2.811e-04

----------------------------Description of solution----------------------------

                                       pH  =   9.800      Charge balance
                                       pe  =   7.871      Adjusted to redox equilibrium
       Specific Conductance (µS/cm, 25°C)  = 75
                          Density (g/cm³)  =   1.03653
                               Volume (L)  =   0.96479
                        Activity of water  =   1.000
                           Ionic strength  =   8.529e-04
                       Mass of water (kg)  =   1.000e+00
                 Total alkalinity (eq/kg)  =   5.622e-04
                       Total CO2 (mol/kg)  =   2.811e-04
                         Temperature (°C)  =  25.00
                           Pressure (atm)  = 947.42
                  Electrical balance (eq)  =  -1.216e-09
 Percent error, 100*(Cat-|An|)/(Cat+|An|)  =  -0.00
                               Iterations  =  18
                                  Total H  = 1.110124e+02
                                  Total O  = 5.550706e+01

----------------------------Distribution of species----------------------------

                                               Log       Log       Log    mole V
   Species          Molality    Activity  Molality  Activity     Gamma   cm³/mol

   OH-             1.362e-04   1.319e-04    -3.866    -3.880    -0.014     -1.39
   H+              1.635e-10   1.586e-10    -9.787    -9.800    -0.013      0.00
   H2O             5.551e+01   1.000e+00     1.744    -0.000     0.000     17.38
C(-4)         0.000e+00
   CH4             0.000e+00   0.000e+00  -125.366  -125.366     0.000     36.34
C(4)          2.811e-04
   HCO3-           1.360e-04   1.318e-04    -3.866    -3.880    -0.014     25.44
   CO3-2           1.112e-04   9.818e-05    -3.954    -4.008    -0.054      1.56
   CaCO3           3.346e-05   3.347e-05    -4.475    -4.475     0.000     -9.48
   CaHCO3+         3.934e-07   3.814e-07    -6.405    -6.419    -0.013     11.53
   CO2             1.722e-08   1.723e-08    -7.764    -7.764     0.000     34.01
   (CO2)2          5.445e-18   5.446e-18   -17.264   -17.264     0.000     68.02
Ca            2.811e-04
   Ca+2            2.470e-04   2.180e-04    -3.607    -3.662    -0.054    -12.89
   CaCO3           3.346e-05   3.347e-05    -4.475    -4.475     0.000     -9.48
   CaHCO3+         3.934e-07   3.814e-07    -6.405    -6.419    -0.013     11.53
   CaOH+           2.354e-07   2.281e-07    -6.628    -6.642    -0.014     (0)  
H(0)          2.157e-39
   H2              1.078e-39   1.079e-39   -38.967   -38.967     0.000     28.27
O(0)          9.923e-16
   O2              4.962e-16   4.963e-16   -15.304   -15.304     0.000     29.33

------------------------------Saturation indices-------------------------------

  Phase               SI** log IAP   log K(298 K, 947 atm)

  Aragonite        -0.10     -7.67   -7.57  CaCO3
  Calcite           0.00     -7.67   -7.67  CaCO3
  CH4(g)         -121.95   -125.37   -3.41  CH4
  CO2(g)           -5.72     -7.76   -2.04  CO2
  H2(g)           -35.39    -38.97   -3.58  H2
  H2O(g)           -1.21     -0.00    1.21  H2O
  O2(g)           -11.92    -15.30   -3.39  O2

**For a gas, SI = log10(fugacity). Fugacity = pressure * phi / 1 atm.
  For ideal gases, phi = 1.

Reaction step 20.

Using solution 1.	
Using pure phase assemblage 1.	
Using pressure 1.	

-------------------------------Phase assemblage--------------------------------

                                                      Moles in assemblage
Phase               SI  log IAP  log K(T, P)   Initial       Final       Delta

Calcite           0.00    -7.63     -7.63    1.000e+01   1.000e+01  -2.932e-04

-----------------------------Solution composition------------------------------

	Elements           Molality       Moles

	C                 2.932e-04   2.932e-04
	Ca                2.932e-04   2.932e-04

----------------------------Description of solution----------------------------

                                       pH  =   9.794      Charge balance
                                       pe  =   7.876      Adjusted to redox equilibrium
       Specific Conductance (µS/cm, 25°C)  = 77
                          Density (g/cm³)  =   1.03854
                               Volume (L)  =   0.96292
                        Activity of water  =   1.000
                           Ionic strength  =   8.855e-04
                       Mass of water (kg)  =   1.000e+00
                 Total alkalinity (eq/kg)  =   5.865e-04
                       Total CO2 (mol/kg)  =   2.932e-04
                         Temperature (°C)  =  25.00
                           Pressure (atm)  = 1000.00
                  Electrical balance (eq)  =  -1.216e-09
 Percent error, 100*(Cat-|An|)/(Cat+|An|)  =  -0.00
                               Iterations  =  18
                                  Total H  = 1.110124e+02
                                  Total O  = 5.550710e+01

----------------------------Distribution of species----------------------------

                                               Log       Log       Log    mole V
   Species          Molality    Activity  Molality  Activity     Gamma   cm³/mol

   OH-             1.392e-04   1.348e-04    -3.856    -3.870    -0.014     -1.28
   H+              1.656e-10   1.606e-10    -9.781    -9.794    -0.013      0.00
   H2O             5.551e+01   1.000e+00     1.744    -0.000     0.000     17.35
C(-4)         0.000e+00
   CH4             0.000e+00   0.000e+00  -125.399  -125.399     0.000     36.37
C(4)          2.932e-04
   HCO3-           1.390e-04   1.347e-04    -3.857    -3.871    -0.014     25.48
   CO3-2           1.171e-04   1.032e-04    -3.931    -3.987    -0.055      1.85
   CaCO3           3.666e-05   3.667e-05    -4.436    -4.436     0.000     -9.28
   CaHCO3+         4.197e-07   4.067e-07    -6.377    -6.391    -0.014     11.60
   CO2             1.692e-08   1.692e-08    -7.772    -7.772     0.000     33.99
   (CO2)2          5.254e-18   5.255e-18   -17.280   -17.279     0.000     67.98
Ca            2.932e-04
   Ca+2            2.559e-04   2.254e-04    -3.592    -3.647    -0.055    -12.67
   CaCO3           3.666e-05   3.667e-05    -4.436    -4.436     0.000     -9.28
   CaHCO3+         4.197e-07   4.067e-07    -6.377    -6.391    -0.014     11.60
   CaOH+           2.404e-07   2.328e-07    -6.619    -6.633    -0.014     (0)  
H(0)          2.042e-39
   H2              1.021e-39   1.021e-39   -38.991   -38.991     0.000     28.25
O(0)          9.924e-16
   O2              4.962e-16   4.963e-16   -15.304   -15.304     0.000     29.29

------------------------------Saturation indices-------------------------------

  Phase               SI** log IAP   log K(298 K, 1000 atm)

  Aragonite        -0.09     -7.63   -7.54  CaCO3
  Calcite           0.00     -7.63   -7.63  CaCO3
  CH4(g)         -121.95   -125.40   -3.45  CH4
  CO2(g)           -5.70     -7.77   -2.07  CO2
  H2(g)           -35.39    -38.99   -3.60  H2
  H2O(g)           -1.20     -0.00    1.20  H2O
  O2(g)           -11.89    -15.30   -3.41  O2

**For a gas, SI = log10(fugacity). Fugacity = pressure * phi / 1 atm.
  For ideal gases, phi = 1.

------------------
End of simulation.
------------------

------------------------------------
Reading input data for simulation 2.
------------------------------------

------------------------------
End of Run after 0.03 Seconds.
------------------------------

