   Input file: cc_P2
  Output file: cc_P2.out
Database file: ../database/phreeqc.dat

------------------
Reading data base.
------------------

	SOLUTION_MASTER_SPECIES
	SOLUTION_SPECIES
	PHASES
	EXCHANGE_MASTER_SPECIES
	EXCHANGE_SPECIES
	SURFACE_MASTER_SPECIES
	SURFACE_SPECIES
	RATES
	END
------------------------------------
Reading input data for simulation 1.
------------------------------------

	DATABASE ../database/phreeqc.dat
	SOLUTION 1
	 pH 7 charge
	 temp 100
	EQUILIBRIUM_PHASES
	 Calcite
	SOLUTION_SPECIES
	Ca+2 + CO3-2 + H+ = CaHCO3+
		log_k	-100 # remove this complex, data from Ellis, 1963 and Segnit et al. 1962.
	REACTION
	 CO2 1
	 0 4*0.05 5*0.1 8*0.3
	INCREMENTAL_REACTIONS true
	GAS_PHASE
	 fixed_volume
	 volume 1
	 CO2(g) 0
	 H2O(g) 0
	USER_GRAPH
	 -headings tk #Ca_tot Ca+2 CaCO3 CaHCO3+ SI_arg
	 -plot_csv_file cc_tc100.dat
	 -axis_scale x_axis 0 70
	 -axis_titles "CO2 Pressure / bar" "Calcite solubility / (mol/kgw)"
	 10 graph_x pr_p("CO2(g)") * 1.013
	 20 graph_y  tot("Ca"), # mol("Ca+2"), mol("CaCO3"), mol("CaHCO3+")
	END
-------------------------------------------
Beginning of initial solution calculations.
-------------------------------------------

Initial solution 1.	

-----------------------------Solution composition------------------------------

	Elements           Molality       Moles

	Pure water     

----------------------------Description of solution----------------------------

                                       pH  =   6.120      Charge balance
                                       pe  =   4.000    
       Specific Conductance (uS/cm, 100 oC) = 1
                          Density (g/cm3)  =   0.95835
                        Activity of water  =   1.000
                           Ionic strength  =   7.596e-07
                       Mass of water (kg)  =   1.000e+00
                 Total alkalinity (eq/kg)  =  -1.118e-16
                    Total carbon (mol/kg)  =   0.000e+00
                       Total CO2 (mol/kg)  =   0.000e+00
                      Temperature (deg C)  = 100.00
                  Electrical balance (eq)  =   1.118e-16
 Percent error, 100*(Cat-|An|)/(Cat+|An|)  =   0.00
                               Iterations  =   5
                                  Total H  = 1.110124e+02
                                  Total O  = 5.550622e+01

----------------------------Distribution of species----------------------------

                                               Log       Log       Log    mole V
   Species          Molality    Activity  Molality  Activity     Gamma   cm3/mol

   H+              7.596e-07   7.587e-07    -6.119    -6.120    -0.001      0.00
   OH-             7.596e-07   7.587e-07    -6.119    -6.120    -0.001     -6.23
   H2O             5.551e+01   1.000e+00     1.744    -0.000     0.000     18.80
H(0)          4.488e-24
   H2              2.244e-24   2.244e-24   -23.649   -23.649     0.000     28.57
O(0)          3.618e-26
   O2              1.809e-26   1.809e-26   -25.743   -25.743     0.000     33.90

------------------------------Saturation indices-------------------------------

	Phase               SI   log IAP   log K(373 K,   1 atm)

	H2(g)           -20.55    -23.65   -3.10  H2
	H2O(g)           -0.00     -0.00    0.00  H2O
	O2(g)           -22.63    -25.74   -3.11  O2


-----------------------------------------
Beginning of batch-reaction calculations.
-----------------------------------------

Reaction step 1.

Using solution 1.	
Using pure phase assemblage 1.	
Using gas phase 1.	
Using reaction 1.	

Reaction 1.	

	  0.000e+00 moles of the following reaction have been added:

	                 Relative
	Reactant            moles

	CO2                  1.00000

	                 Relative
	Element             moles
	C                    1.00000
	O                    2.00000

-----------------------------------Gas phase-----------------------------------

Total pressure:  1.00      atmospheres          (Peng-Robinson calculation)
    Gas volume:   1.00e+00 liters
  Molar volume:   3.04e+01 liters/mole
   P * Vm / RT:  0.99132  (Compressibility Factor Z) 

                                                        Moles in gas
                                            ----------------------------------
Component         log P           P    phi     Initial       Final       Delta

CO2(g)            -3.88   1.310e-04  1.001   0.000e+00   4.316e-06   4.316e-06
H2O(g)            -0.00   9.971e-01  0.991   0.000e+00   3.285e-02   3.285e-02

-------------------------------Phase assemblage--------------------------------

                                                      Moles in assemblage
Phase               SI  log IAP  log K(T, P)   Initial       Final       Delta

Calcite           0.00    -9.27     -9.27    1.000e+01   1.000e+01  -1.856e-04

-----------------------------Solution composition------------------------------

	Elements           Molality       Moles

	C                 1.813e-04   1.812e-04
	Ca                1.857e-04   1.856e-04

----------------------------Description of solution----------------------------

                                       pH  =   8.480      Charge balance
                                       pe  =  -2.800      Adjusted to redox equilibrium
       Specific Conductance (uS/cm, 100 oC) = 198
                          Density (g/cm3)  =   0.95838
                        Activity of water  =   1.000
                           Ionic strength  =   5.369e-04
                       Mass of water (kg)  =   9.994e-01
                 Total alkalinity (eq/kg)  =   3.713e-04
                       Total CO2 (mol/kg)  =   1.813e-04
                      Temperature (deg C)  = 100.00
                           Pressure (atm)  =  1.00
                  Electrical balance (eq)  =   5.755e-14
 Percent error, 100*(Cat-|An|)/(Cat+|An|)  =   0.00
                               Iterations  =  33
                                  Total H  = 1.109467e+02
                                  Total O  = 5.547392e+01

----------------------------Distribution of species----------------------------

                                               Log       Log       Log    mole V
   Species          Molality    Activity  Molality  Activity     Gamma   cm3/mol

   OH-             1.795e-04   1.740e-04    -3.746    -3.759    -0.014     -6.19
   H+              3.408e-09   3.308e-09    -8.468    -8.480    -0.013      0.00
   H2O             5.551e+01   1.000e+00     1.744    -0.000     0.000     18.80
C(-4)         1.621e-36
   CH4             1.621e-36   1.621e-36   -35.790   -35.790     0.000     32.22
C(4)          1.813e-04
   HCO3-           1.680e-04   1.629e-04    -3.775    -3.788    -0.013     22.75
   CaCO3           7.995e-06   7.996e-06    -5.097    -5.097     0.000    -14.43
   CO3-2           3.896e-06   3.446e-06    -5.409    -5.463    -0.053     -7.65
   CO2             1.439e-06   1.439e-06    -5.842    -5.842     0.000     20.65
   CaHCO3+         0.000e+00   0.000e+00  -117.734  -117.747    -0.013     (0)  
Ca            1.857e-04
   Ca+2            1.777e-04   1.571e-04    -3.750    -3.804    -0.053    -19.57
   CaCO3           7.995e-06   7.996e-06    -5.097    -5.097     0.000    -14.43
   CaOH+           8.131e-09   7.883e-09    -8.090    -8.103    -0.013     (0)  
   CaHCO3+         0.000e+00   0.000e+00  -117.734  -117.747    -0.013     (0)  
H(0)          3.393e-15
   H2              1.697e-15   1.697e-15   -14.770   -14.770     0.000     28.57
O(0)          0.000e+00
   O2              0.000e+00   0.000e+00   -43.500   -43.500     0.000     33.90

------------------------------Saturation indices-------------------------------

	Phase               SI   log IAP   log K(373 K,   1 atm)

	Aragonite        -0.10     -9.27   -9.17  CaCO3
	Calcite           0.00     -9.27   -9.27  CaCO3
	CH4(g)          -32.73    -35.79   -3.06  CH4
	CO2(g)           -3.88     -5.84   -1.96  CO2	 Pressure   0.0 atm, phi 1.001.
	H2(g)           -11.67    -14.77   -3.10  H2
	H2O(g)           -0.01     -0.00    0.00  H2O	 Pressure   1.0 atm, phi 0.991.
	O2(g)           -40.39    -43.50   -3.11  O2


Reaction step 2.

Using solution 1.	
Using pure phase assemblage 1.	
Using gas phase 1.	
Using reaction 1.	

Reaction 1.	

	  5.000e-02 moles of the following reaction have been added:

	                 Relative
	Reactant            moles

	CO2                  1.00000

	                 Relative
	Element             moles
	C                    1.00000
	O                    2.00000

-----------------------------------Gas phase-----------------------------------

Total pressure:  2.09      atmospheres          (Peng-Robinson calculation)
    Gas volume:   1.00e+00 liters
  Molar volume:   1.45e+01 liters/mole
   P * Vm / RT:  0.99018  (Compressibility Factor Z) 

                                                        Moles in gas
                                            ----------------------------------
Component         log P           P    phi     Initial       Final       Delta

CO2(g)             0.03   1.082e+00  0.996   4.316e-06   3.569e-02   3.568e-02
H2O(g)             0.00   1.005e+00  0.984   3.285e-02   3.315e-02   2.969e-04

-------------------------------Phase assemblage--------------------------------

                                                      Moles in assemblage
Phase               SI  log IAP  log K(T, P)   Initial       Final       Delta

Calcite          -0.00    -9.27     -9.27    1.000e+01   9.997e+00  -2.340e-03

-----------------------------Solution composition------------------------------

	Elements           Molality       Moles

	C                 1.685e-02   1.684e-02
	Ca                2.527e-03   2.525e-03

----------------------------Description of solution----------------------------

                                       pH  =   6.011      Charge balance
                                       pe  =  -0.764      Adjusted to redox equilibrium
       Specific Conductance (uS/cm, 100 oC) = 1456
                          Density (g/cm3)  =   0.95896
                        Activity of water  =   1.000
                           Ionic strength  =   7.559e-03
                       Mass of water (kg)  =   9.994e-01
                 Total alkalinity (eq/kg)  =   5.054e-03
                       Total CO2 (mol/kg)  =   1.685e-02
                      Temperature (deg C)  = 100.00
                           Pressure (atm)  =  2.09
                  Electrical balance (eq)  =  -2.035e-11
 Percent error, 100*(Cat-|An|)/(Cat+|An|)  =  -0.00
                               Iterations  =  22
                                  Total H  = 1.109461e+02
                                  Total O  = 5.550927e+01

----------------------------Distribution of species----------------------------

                                               Log       Log       Log    mole V
   Species          Molality    Activity  Molality  Activity     Gamma   cm3/mol

   H+              1.072e-06   9.748e-07    -5.970    -6.011    -0.041      0.00
   OH-             6.587e-07   5.908e-07    -6.181    -6.229    -0.047     -6.04
   H2O             5.551e+01   9.997e-01     1.744    -0.000     0.000     18.80
C(-4)         3.907e-29
   CH4             3.907e-29   3.914e-29   -28.408   -28.407     0.001     32.22
C(4)          1.685e-02
   CO2             1.180e-02   1.182e-02    -1.928    -1.927     0.001     20.67
   HCO3-           5.038e-03   4.542e-03    -2.298    -2.343    -0.045     22.90
   CaCO3           7.997e-06   8.011e-06    -5.097    -5.096     0.001    -14.43
   CO3-2           4.936e-07   3.263e-07    -6.307    -6.486    -0.180     -7.14
   CaHCO3+         0.000e+00   0.000e+00  -115.230  -115.277    -0.047     (0)  
Ca            2.527e-03
   Ca+2            2.519e-03   1.663e-03    -2.599    -2.779    -0.180    -19.13
   CaCO3           7.997e-06   8.011e-06    -5.097    -5.096     0.001    -14.43
   CaOH+           3.151e-10   2.830e-10    -9.502    -9.548    -0.047     (0)  
   CaHCO3+         0.000e+00   0.000e+00  -115.230  -115.277    -0.047     (0)  
H(0)          2.492e-14
   H2              1.246e-14   1.248e-14   -13.904   -13.904     0.001     28.57
O(0)          0.000e+00
   O2              0.000e+00   0.000e+00   -45.235   -45.234     0.001     33.90

------------------------------Saturation indices-------------------------------

	Phase               SI   log IAP   log K(373 K,   2 atm)

	Aragonite        -0.10     -9.27   -9.16  CaCO3
	Calcite           0.00     -9.27   -9.27  CaCO3
	CH4(g)          -25.34    -28.41   -3.06  CH4
	CO2(g)            0.03     -1.93   -1.96  CO2	 Pressure   1.1 atm, phi 0.996.
	H2(g)           -10.80    -13.90   -3.10  H2
	H2O(g)           -0.00     -0.00    0.00  H2O	 Pressure   1.0 atm, phi 0.984.
	O2(g)           -42.12    -45.23   -3.12  O2


Reaction step 3.

Using solution 1.	
Using pure phase assemblage 1.	
Using gas phase 1.	
Using reaction 1.	

Reaction 1.	

	  5.000e-02 moles of the following reaction have been added:

	                 Relative
	Reactant            moles

	CO2                  1.00000

	                 Relative
	Element             moles
	C                    1.00000
	O                    2.00000

-----------------------------------Gas phase-----------------------------------

Total pressure:  3.21      atmospheres          (Peng-Robinson calculation)
    Gas volume:   1.00e+00 liters
  Molar volume:   9.41e+00 liters/mole
   P * Vm / RT:  0.98770  (Compressibility Factor Z) 

                                                        Moles in gas
                                            ----------------------------------
Component         log P           P    phi     Initial       Final       Delta

CO2(g)             0.34   2.203e+00  0.993   3.569e-02   7.284e-02   3.715e-02
H2O(g)             0.01   1.012e+00  0.978   3.315e-02   3.346e-02   3.139e-04

-------------------------------Phase assemblage--------------------------------

                                                      Moles in assemblage
Phase               SI  log IAP  log K(T, P)   Initial       Final       Delta

Calcite          -0.00    -9.26     -9.26    9.997e+00   9.997e+00  -7.484e-04

-----------------------------Solution composition------------------------------

	Elements           Molality       Moles

	C                 3.045e-02   3.043e-02
	Ca                3.276e-03   3.274e-03

----------------------------Description of solution----------------------------

                                       pH  =   5.812      Charge balance
                                       pe  =  -0.646      Adjusted to redox equilibrium
       Specific Conductance (uS/cm, 100 oC) = 1862
                          Density (g/cm3)  =   0.95944
                        Activity of water  =   0.999
                           Ionic strength  =   9.806e-03
                       Mass of water (kg)  =   9.993e-01
                 Total alkalinity (eq/kg)  =   6.552e-03
                       Total CO2 (mol/kg)  =   3.045e-02
                      Temperature (deg C)  = 100.00
                           Pressure (atm)  =  3.21
                  Electrical balance (eq)  =  -4.353e-11
 Percent error, 100*(Cat-|An|)/(Cat+|An|)  =  -0.00
                               Iterations  =  21
                                  Total H  = 1.109455e+02
                                  Total O  = 5.553690e+01

----------------------------Distribution of species----------------------------

                                               Log       Log       Log    mole V
   Species          Molality    Activity  Molality  Activity     Gamma   cm3/mol

   H+              1.712e-06   1.542e-06    -5.766    -5.812    -0.046      0.00
   OH-             4.224e-07   3.738e-07    -6.374    -6.427    -0.053     -6.01
   H2O             5.551e+01   9.994e-01     1.744    -0.000     0.000     18.80
C(-4)         3.551e-28
   CH4             3.551e-28   3.559e-28   -27.450   -27.449     0.001     32.22
C(4)          3.045e-02
   CO2             2.391e-02   2.396e-02    -1.621    -1.620     0.001     20.69
   HCO3-           6.536e-03   5.823e-03    -2.185    -2.235    -0.050     22.93
   CaCO3           8.008e-06   8.026e-06    -5.096    -5.096     0.001    -14.42
   CO3-2           4.204e-07   2.647e-07    -6.376    -6.577    -0.201     -7.03
   CaHCO3+         0.000e+00   0.000e+00  -115.024  -115.076    -0.052     (0)  
Ca            3.276e-03
   Ca+2            3.268e-03   2.054e-03    -2.486    -2.687    -0.202    -19.05
   CaCO3           8.008e-06   8.026e-06    -5.096    -5.096     0.001    -14.42
   CaOH+           2.493e-10   2.210e-10    -9.603    -9.656    -0.052     (0)  
   CaHCO3+         0.000e+00   0.000e+00  -115.024  -115.076    -0.052     (0)  
H(0)          3.623e-14
   H2              1.811e-14   1.816e-14   -13.742   -13.741     0.001     28.57
O(0)          0.000e+00
   O2              0.000e+00   0.000e+00   -45.562   -45.561     0.001     33.89

------------------------------Saturation indices-------------------------------

	Phase               SI   log IAP   log K(373 K,   3 atm)

	Aragonite        -0.10     -9.26   -9.16  CaCO3
	Calcite           0.00     -9.26   -9.26  CaCO3
	CH4(g)          -24.39    -27.45   -3.06  CH4
	CO2(g)            0.34     -1.62   -1.96  CO2	 Pressure   2.2 atm, phi 0.993.
	H2(g)           -10.64    -13.74   -3.10  H2
	H2O(g)           -0.00     -0.00    0.00  H2O	 Pressure   1.0 atm, phi 0.978.
	O2(g)           -42.44    -45.56   -3.12  O2


Reaction step 4.

Using solution 1.	
Using pure phase assemblage 1.	
Using gas phase 1.	
Using reaction 1.	

Reaction 1.	

	  5.000e-02 moles of the following reaction have been added:

	                 Relative
	Reactant            moles

	CO2                  1.00000

	                 Relative
	Element             moles
	C                    1.00000
	O                    2.00000

-----------------------------------Gas phase-----------------------------------

Total pressure:  4.34      atmospheres          (Peng-Robinson calculation)
    Gas volume:   1.00e+00 liters
  Molar volume:   6.94e+00 liters/mole
   P * Vm / RT:  0.98491  (Compressibility Factor Z) 

                                                        Moles in gas
                                            ----------------------------------
Component         log P           P    phi     Initial       Final       Delta

CO2(g)             0.52   3.326e+00  0.989   7.284e-02   1.103e-01   3.745e-02
H2O(g)             0.01   1.019e+00  0.972   3.346e-02   3.378e-02   3.188e-04

-------------------------------Phase assemblage--------------------------------

                                                      Moles in assemblage
Phase               SI  log IAP  log K(T, P)   Initial       Final       Delta

Calcite          -0.00    -9.26     -9.26    9.997e+00   9.996e+00  -5.348e-04

-----------------------------Solution composition------------------------------

	Elements           Molality       Moles

	C                 4.355e-02   4.352e-02
	Ca                3.811e-03   3.809e-03

----------------------------Description of solution----------------------------

                                       pH  =   5.697      Charge balance
                                       pe  =  -0.600      Adjusted to redox equilibrium
       Specific Conductance (uS/cm, 100 oC) = 2148
                          Density (g/cm3)  =   0.95984
                        Activity of water  =   0.999
                           Ionic strength  =   1.141e-02
                       Mass of water (kg)  =   9.993e-01
                 Total alkalinity (eq/kg)  =   7.623e-03
                       Total CO2 (mol/kg)  =   4.355e-02
                      Temperature (deg C)  = 100.00
                           Pressure (atm)  =  4.34
                  Electrical balance (eq)  =   3.444e-12
 Percent error, 100*(Cat-|An|)/(Cat+|An|)  =   0.00
                               Iterations  =  19
                                  Total H  = 1.109449e+02
                                  Total O  = 5.556329e+01

----------------------------Distribution of species----------------------------

                                               Log       Log       Log    mole V
   Species          Molality    Activity  Molality  Activity     Gamma   cm3/mol

   H+              2.244e-06   2.008e-06    -5.649    -5.697    -0.048      0.00
   OH-             3.274e-07   2.872e-07    -6.485    -6.542    -0.057     -5.98
   H2O             5.551e+01   9.992e-01     1.744    -0.000     0.000     18.80
C(-4)         1.873e-27
   CH4             1.873e-27   1.877e-27   -26.728   -26.726     0.001     32.22
C(4)          4.355e-02
   CO2             3.594e-02   3.603e-02    -1.444    -1.443     0.001     20.71
   HCO3-           7.608e-03   6.726e-03    -2.119    -2.172    -0.054     22.96
   CaCO3           8.020e-06   8.041e-06    -5.096    -5.095     0.001    -14.41
   CO3-2           3.848e-07   2.350e-07    -6.415    -6.629    -0.214     -6.96
   CaHCO3+         0.000e+00   0.000e+00  -114.905  -114.961    -0.056     (0)  
Ca            3.811e-03
   Ca+2            3.803e-03   2.319e-03    -2.420    -2.635    -0.215    -18.99
   CaCO3           8.020e-06   8.041e-06    -5.096    -5.095     0.001    -14.41
   CaOH+           2.178e-10   1.915e-10    -9.662    -9.718    -0.056     (0)  
   CaHCO3+         0.000e+00   0.000e+00  -114.905  -114.961    -0.056     (0)  
H(0)          4.953e-14
   H2              2.476e-14   2.483e-14   -13.606   -13.605     0.001     28.57
O(0)          0.000e+00
   O2              0.000e+00   0.000e+00   -45.835   -45.834     0.001     33.89

------------------------------Saturation indices-------------------------------

	Phase               SI   log IAP   log K(373 K,   4 atm)

	Aragonite        -0.10     -9.26   -9.16  CaCO3
	Calcite          -0.00     -9.26   -9.26  CaCO3
	CH4(g)          -23.67    -26.73   -3.06  CH4
	CO2(g)            0.52     -1.44   -1.96  CO2	 Pressure   3.3 atm, phi 0.989.
	H2(g)           -10.50    -13.61   -3.10  H2
	H2O(g)           -0.00     -0.00    0.00  H2O	 Pressure   1.0 atm, phi 0.972.
	O2(g)           -42.72    -45.83   -3.12  O2


Reaction step 5.

Using solution 1.	
Using pure phase assemblage 1.	
Using gas phase 1.	
Using reaction 1.	

Reaction 1.	

	  5.000e-02 moles of the following reaction have been added:

	                 Relative
	Reactant            moles

	CO2                  1.00000

	                 Relative
	Element             moles
	C                    1.00000
	O                    2.00000

-----------------------------------Gas phase-----------------------------------

Total pressure:  5.47      atmospheres          (Peng-Robinson calculation)
    Gas volume:   1.00e+00 liters
  Molar volume:   5.49e+00 liters/mole
   P * Vm / RT:  0.98200  (Compressibility Factor Z) 

                                                        Moles in gas
                                            ----------------------------------
Component         log P           P    phi     Initial       Final       Delta

CO2(g)             0.65   4.448e+00  0.986   1.103e-01   1.479e-01   3.765e-02
H2O(g)             0.01   1.025e+00  0.966   3.378e-02   3.410e-02   3.228e-04

-------------------------------Phase assemblage--------------------------------

                                                      Moles in assemblage
Phase               SI  log IAP  log K(T, P)   Initial       Final       Delta

Calcite          -0.00    -9.26     -9.26    9.996e+00   9.996e+00  -4.307e-04

-----------------------------Solution composition------------------------------

	Elements           Molality       Moles

	C                 5.634e-02   5.630e-02
	Ca                4.242e-03   4.239e-03

----------------------------Description of solution----------------------------

                                       pH  =   5.617      Charge balance
                                       pe  =  -0.578      Adjusted to redox equilibrium
       Specific Conductance (uS/cm, 100 oC) = 2376
                          Density (g/cm3)  =   0.96023
                        Activity of water  =   0.999
                           Ionic strength  =   1.271e-02
                       Mass of water (kg)  =   9.993e-01
                 Total alkalinity (eq/kg)  =   8.485e-03
                       Total CO2 (mol/kg)  =   5.634e-02
                      Temperature (deg C)  = 100.00
                           Pressure (atm)  =  5.47
                  Electrical balance (eq)  =   6.902e-11
 Percent error, 100*(Cat-|An|)/(Cat+|An|)  =   0.00
                               Iterations  =  19
                                  Total H  = 1.109442e+02
                                  Total O  = 5.558895e+01

----------------------------Distribution of species----------------------------

                                               Log       Log       Log    mole V
   Species          Molality    Activity  Molality  Activity     Gamma   cm3/mol

   H+              2.713e-06   2.417e-06    -5.567    -5.617    -0.050      0.00
   OH-             2.739e-07   2.388e-07    -6.562    -6.622    -0.060     -5.97
   H2O             5.551e+01   9.990e-01     1.744    -0.000     0.000     18.79
C(-4)         7.330e-27
   CH4             7.330e-27   7.352e-27   -26.135   -26.134     0.001     32.22
C(4)          5.634e-02
   CO2             4.786e-02   4.800e-02    -1.320    -1.319     0.001     20.73
   HCO3-           8.470e-03   7.446e-03    -2.072    -2.128    -0.056     22.98
   CaCO3           8.033e-06   8.056e-06    -5.095    -5.094     0.001    -14.41
   CO3-2           3.624e-07   2.164e-07    -6.441    -6.665    -0.224     -6.90
   CaHCO3+         0.000e+00   0.000e+00  -114.821  -114.879    -0.058     (0)  
Ca            4.242e-03
   Ca+2            4.234e-03   2.524e-03    -2.373    -2.598    -0.225    -18.95
   CaCO3           8.033e-06   8.056e-06    -5.095    -5.094     0.001    -14.41
   CaOH+           1.981e-10   1.731e-10    -9.703    -9.762    -0.058     (0)  
   CaHCO3+         0.000e+00   0.000e+00  -114.821  -114.879    -0.058     (0)  
H(0)          6.479e-14
   H2              3.239e-14   3.249e-14   -13.490   -13.488     0.001     28.57
O(0)          0.000e+00
   O2              0.000e+00   0.000e+00   -46.070   -46.068     0.001     33.88

------------------------------Saturation indices-------------------------------

	Phase               SI   log IAP   log K(373 K,   5 atm)

	Aragonite        -0.10     -9.26   -9.16  CaCO3
	Calcite          -0.00     -9.26   -9.26  CaCO3
	CH4(g)          -23.07    -26.13   -3.06  CH4
	CO2(g)            0.64     -1.32   -1.96  CO2	 Pressure   4.4 atm, phi 0.986.
	H2(g)           -10.39    -13.49   -3.10  H2
	H2O(g)           -0.00     -0.00    0.00  H2O	 Pressure   1.0 atm, phi 0.966.
	O2(g)           -42.95    -46.07   -3.12  O2


Reaction step 6.

Using solution 1.	
Using pure phase assemblage 1.	
Using gas phase 1.	
Using reaction 1.	

Reaction 1.	

	  1.000e-01 moles of the following reaction have been added:

	                 Relative
	Reactant            moles

	CO2                  1.00000

	                 Relative
	Element             moles
	C                    1.00000
	O                    2.00000

-----------------------------------Gas phase-----------------------------------

Total pressure:  7.73      atmospheres          (Peng-Robinson calculation)
    Gas volume:   1.00e+00 liters
  Molar volume:   3.87e+00 liters/mole
   P * Vm / RT:  0.97605  (Compressibility Factor Z) 

                                                        Moles in gas
                                            ----------------------------------
Component         log P           P    phi     Initial       Final       Delta

CO2(g)             0.83   6.688e+00  0.980   1.479e-01   2.238e-01   7.583e-02
H2O(g)             0.02   1.039e+00  0.954   3.410e-02   3.476e-02   6.566e-04

-------------------------------Phase assemblage--------------------------------

                                                      Moles in assemblage
Phase               SI  log IAP  log K(T, P)   Initial       Final       Delta

Calcite          -0.00    -9.26     -9.26    9.996e+00   9.995e+00  -6.886e-04

-----------------------------Solution composition------------------------------

	Elements           Molality       Moles

	C                 8.122e-02   8.116e-02
	Ca                4.932e-03   4.928e-03

----------------------------Description of solution----------------------------

                                       pH  =   5.505      Charge balance
                                       pe  =  -0.263      Adjusted to redox equilibrium
       Specific Conductance (uS/cm, 100 oC) = 2736
                          Density (g/cm3)  =   0.96096
                        Activity of water  =   0.999
                           Ionic strength  =   1.477e-02
                       Mass of water (kg)  =   9.993e-01
                 Total alkalinity (eq/kg)  =   9.863e-03
                       Total CO2 (mol/kg)  =   8.122e-02
                      Temperature (deg C)  = 100.00
                           Pressure (atm)  =  7.73
                  Electrical balance (eq)  =   1.064e-10
 Percent error, 100*(Cat-|An|)/(Cat+|An|)  =   0.00
                               Iterations  =  21
                                  Total H  = 1.109429e+02
                                  Total O  = 5.563871e+01

----------------------------Distribution of species----------------------------

                                               Log       Log       Log    mole V
   Species          Molality    Activity  Molality  Activity     Gamma   cm3/mol

   H+              3.535e-06   3.129e-06    -5.452    -5.505    -0.053      0.00
   OH-             2.139e-07   1.847e-07    -6.670    -6.734    -0.064     -5.93
   H2O             5.551e+01   9.985e-01     1.744    -0.001     0.000     18.79
C(-4)         2.591e-28
   CH4             2.591e-28   2.600e-28   -27.587   -27.585     0.001     32.22
C(4)          8.122e-02
   CO2             7.136e-02   7.160e-02    -1.147    -1.145     0.001     20.76
   HCO3-           9.850e-03   8.588e-03    -2.007    -2.066    -0.060     23.01
   CaCO3           8.059e-06   8.087e-06    -5.094    -5.092     0.001    -14.39
   CO3-2           3.344e-07   1.933e-07    -6.476    -6.714    -0.238     -6.81
   CaHCO3+         0.000e+00   0.000e+00  -114.703  -114.765    -0.062     (0)  
Ca            4.932e-03
   Ca+2            4.923e-03   2.840e-03    -2.308    -2.547    -0.239    -18.88
   CaCO3           8.059e-06   8.087e-06    -5.094    -5.092     0.001    -14.39
   CaOH+           1.736e-10   1.504e-10    -9.760    -9.823    -0.062     (0)  
   CaHCO3+         0.000e+00   0.000e+00  -114.703  -114.765    -0.062     (0)  
H(0)          2.537e-14
   H2              1.269e-14   1.273e-14   -13.897   -13.895     0.001     28.57
O(0)          0.000e+00
   O2              0.000e+00   0.000e+00   -45.258   -45.257     0.001     33.88

------------------------------Saturation indices-------------------------------

	Phase               SI   log IAP   log K(373 K,   8 atm)

	Aragonite        -0.10     -9.26   -9.16  CaCO3
	Calcite          -0.00     -9.26   -9.26  CaCO3
	CH4(g)          -24.53    -27.59   -3.06  CH4
	CO2(g)            0.81     -1.15   -1.96  CO2	 Pressure   6.7 atm, phi 0.980.
	H2(g)           -10.79    -13.90   -3.10  H2
	H2O(g)           -0.00     -0.00    0.00  H2O	 Pressure   1.0 atm, phi 0.954.
	O2(g)           -42.14    -45.26   -3.12  O2


Reaction step 7.

Using solution 1.	
Using pure phase assemblage 1.	
Using gas phase 1.	
Using reaction 1.	

Reaction 1.	

	  1.000e-01 moles of the following reaction have been added:

	                 Relative
	Reactant            moles

	CO2                  1.00000

	                 Relative
	Element             moles
	C                    1.00000
	O                    2.00000

-----------------------------------Gas phase-----------------------------------

Total pressure:  9.97      atmospheres          (Peng-Robinson calculation)
    Gas volume:   1.00e+00 liters
  Molar volume:   2.98e+00 liters/mole
   P * Vm / RT:  0.97004  (Compressibility Factor Z) 

                                                        Moles in gas
                                            ----------------------------------
Component         log P           P    phi     Initial       Final       Delta

CO2(g)             0.95   8.917e+00  0.974   2.238e-01   3.002e-01   7.644e-02
H2O(g)             0.02   1.052e+00  0.943   3.476e-02   3.543e-02   6.706e-04

-------------------------------Phase assemblage--------------------------------

                                                      Moles in assemblage
Phase               SI  log IAP  log K(T, P)   Initial       Final       Delta

Calcite          -0.00    -9.26     -9.26    9.995e+00   9.995e+00  -5.526e-04

-----------------------------Solution composition------------------------------

	Elements           Molality       Moles

	C                 1.053e-01   1.053e-01
	Ca                5.485e-03   5.481e-03

----------------------------Description of solution----------------------------

                                       pH  =   5.426      Charge balance
                                       pe  =  -0.071      Adjusted to redox equilibrium
       Specific Conductance (uS/cm, 100 oC) = 3022
                          Density (g/cm3)  =   0.96167
                        Activity of water  =   0.998
                           Ionic strength  =   1.643e-02
                       Mass of water (kg)  =   9.993e-01
                 Total alkalinity (eq/kg)  =   1.097e-02
                       Total CO2 (mol/kg)  =   1.053e-01
                      Temperature (deg C)  = 100.00
                           Pressure (atm)  =  9.97
                  Electrical balance (eq)  =   1.417e-10
 Percent error, 100*(Cat-|An|)/(Cat+|An|)  =   0.00
                               Iterations  =  21
                                  Total H  = 1.109416e+02
                                  Total O  = 5.568681e+01

----------------------------Distribution of species----------------------------

                                               Log       Log       Log    mole V
   Species          Molality    Activity  Molality  Activity     Gamma   cm3/mol

   H+              4.254e-06   3.747e-06    -5.371    -5.426    -0.055      0.00
   OH-             1.801e-07   1.544e-07    -6.745    -6.811    -0.067     -5.91
   H2O             5.551e+01   9.981e-01     1.744    -0.001     0.000     18.79
C(-4)         4.183e-29
   CH4             4.183e-29   4.199e-29   -28.379   -28.377     0.002     32.22
C(4)          1.053e-01
   CO2             9.438e-02   9.474e-02    -1.025    -1.023     0.002     20.80
   HCO3-           1.096e-02   9.496e-03    -1.960    -2.022    -0.062     23.04
   CaCO3           8.086e-06   8.117e-06    -5.092    -5.091     0.002    -14.38
   CO3-2           3.170e-07   1.788e-07    -6.499    -6.748    -0.249     -6.73
   CaHCO3+         0.000e+00   0.000e+00  -114.620  -114.685    -0.065     (0)  
Ca            5.485e-03
   Ca+2            5.477e-03   3.083e-03    -2.261    -2.511    -0.249    -18.83
   CaCO3           8.086e-06   8.117e-06    -5.092    -5.091     0.002    -14.38
   CaOH+           1.584e-10   1.363e-10    -9.800    -9.865    -0.065     (0)  
   CaHCO3+         0.000e+00   0.000e+00  -114.620  -114.685    -0.065     (0)  
H(0)          1.497e-14
   H2              7.485e-15   7.514e-15   -14.126   -14.124     0.002     28.56
O(0)          0.000e+00
   O2              0.000e+00   0.000e+00   -44.802   -44.801     0.002     33.87

------------------------------Saturation indices-------------------------------

	Phase               SI   log IAP   log K(373 K,  10 atm)

	Aragonite        -0.10     -9.26   -9.16  CaCO3
	Calcite          -0.00     -9.26   -9.26  CaCO3
	CH4(g)          -25.32    -28.38   -3.06  CH4
	CO2(g)            0.93     -1.02   -1.96  CO2	 Pressure   8.9 atm, phi 0.974.
	H2(g)           -11.02    -14.12   -3.10  H2
	H2O(g)           -0.00     -0.00    0.00  H2O	 Pressure   1.1 atm, phi 0.943.
	O2(g)           -41.68    -44.80   -3.12  O2


Reaction step 8.

Using solution 1.	
Using pure phase assemblage 1.	
Using gas phase 1.	
Using reaction 1.	

Reaction 1.	

	  1.000e-01 moles of the following reaction have been added:

	                 Relative
	Reactant            moles

	CO2                  1.00000

	                 Relative
	Element             moles
	C                    1.00000
	O                    2.00000

-----------------------------------Gas phase-----------------------------------

Total pressure: 12.20      atmospheres          (Peng-Robinson calculation)
    Gas volume:   1.00e+00 liters
  Molar volume:   2.42e+00 liters/mole
   P * Vm / RT:  0.96403  (Compressibility Factor Z) 

                                                        Moles in gas
                                            ----------------------------------
Component         log P           P    phi     Initial       Final       Delta

CO2(g)             1.05   1.114e+01  0.968   3.002e-01   3.772e-01   7.701e-02
H2O(g)             0.03   1.066e+00  0.932   3.543e-02   3.611e-02   6.844e-04

-------------------------------Phase assemblage--------------------------------

                                                      Moles in assemblage
Phase               SI  log IAP  log K(T, P)   Initial       Final       Delta

Calcite          -0.00    -9.26     -9.26    9.995e+00   9.994e+00  -4.683e-04

-----------------------------Solution composition------------------------------

	Elements           Molality       Moles

	C                 1.288e-01   1.287e-01
	Ca                5.953e-03   5.949e-03

----------------------------Description of solution----------------------------

                                       pH  =   5.366      Charge balance
                                       pe  =   0.021      Adjusted to redox equilibrium
       Specific Conductance (uS/cm, 100 oC) = 3262
                          Density (g/cm3)  =   0.96235
                        Activity of water  =   0.998
                           Ionic strength  =   1.784e-02
                       Mass of water (kg)  =   9.992e-01
                 Total alkalinity (eq/kg)  =   1.191e-02
                       Total CO2 (mol/kg)  =   1.288e-01
                      Temperature (deg C)  = 100.00
                           Pressure (atm)  = 12.20
                  Electrical balance (eq)  =   1.750e-10
 Percent error, 100*(Cat-|An|)/(Cat+|An|)  =   0.00
                               Iterations  =  20
                                  Total H  = 1.109402e+02
                                  Total O  = 5.573352e+01

----------------------------Distribution of species----------------------------

                                               Log       Log       Log    mole V
   Species          Molality    Activity  Molality  Activity     Gamma   cm3/mol

   H+              4.902e-06   4.301e-06    -5.310    -5.366    -0.057      0.00
   OH-             1.579e-07   1.347e-07    -6.801    -6.871    -0.069     -5.88
   H2O             5.551e+01   9.977e-01     1.744    -0.001     0.000     18.79
C(-4)         2.889e-29
   CH4             2.889e-29   2.900e-29   -28.539   -28.538     0.002     32.22
C(4)          1.288e-01
   CO2             1.169e-01   1.174e-01    -0.932    -0.930     0.002     20.84
   HCO3-           1.189e-02   1.026e-02    -1.925    -1.989    -0.064     23.06
   CaCO3           8.114e-06   8.147e-06    -5.091    -5.089     0.002    -14.36
   CO3-2           3.047e-07   1.687e-07    -6.516    -6.773    -0.257     -6.67
   CaHCO3+         0.000e+00   0.000e+00  -114.556  -114.623    -0.067     (0)  
Ca            5.953e-03
   Ca+2            5.945e-03   3.284e-03    -2.226    -2.484    -0.258    -18.78
   CaCO3           8.114e-06   8.147e-06    -5.091    -5.089     0.002    -14.36
   CaOH+           1.476e-10   1.264e-10    -9.831    -9.898    -0.067     (0)  
   CaHCO3+         0.000e+00   0.000e+00  -114.556  -114.623    -0.067     (0)  
H(0)          1.291e-14
   H2              6.457e-15   6.483e-15   -14.190   -14.188     0.002     28.56
O(0)          0.000e+00
   O2              0.000e+00   0.000e+00   -44.676   -44.675     0.002     33.86

------------------------------Saturation indices-------------------------------

	Phase               SI   log IAP   log K(373 K,  12 atm)

	Aragonite        -0.10     -9.26   -9.16  CaCO3
	Calcite          -0.00     -9.26   -9.26  CaCO3
	CH4(g)          -25.48    -28.54   -3.05  CH4
	CO2(g)            1.03     -0.93   -1.96  CO2	 Pressure  11.1 atm, phi 0.968.
	H2(g)           -11.09    -14.19   -3.10  H2
	H2O(g)           -0.00     -0.00    0.00  H2O	 Pressure   1.1 atm, phi 0.932.
	O2(g)           -41.55    -44.67   -3.12  O2


Reaction step 9.

Using solution 1.	
Using pure phase assemblage 1.	
Using gas phase 1.	
Using reaction 1.	

Reaction 1.	

	  1.000e-01 moles of the following reaction have been added:

	                 Relative
	Reactant            moles

	CO2                  1.00000

	                 Relative
	Element             moles
	C                    1.00000
	O                    2.00000

-----------------------------------Gas phase-----------------------------------

Total pressure: 14.42      atmospheres          (Peng-Robinson calculation)
    Gas volume:   1.00e+00 liters
  Molar volume:   2.03e+00 liters/mole
   P * Vm / RT:  0.95802  (Compressibility Factor Z) 

                                                        Moles in gas
                                            ----------------------------------
Component         log P           P    phi     Initial       Final       Delta

CO2(g)             1.13   1.334e+01  0.962   3.772e-01   4.548e-01   7.754e-02
H2O(g)             0.03   1.080e+00  0.921   3.611e-02   3.681e-02   6.981e-04

-------------------------------Phase assemblage--------------------------------

                                                      Moles in assemblage
Phase               SI  log IAP  log K(T, P)   Initial       Final       Delta

Calcite          -0.00    -9.25     -9.25    9.994e+00   9.994e+00  -4.097e-04

-----------------------------Solution composition------------------------------

	Elements           Molality       Moles

	C                 1.517e-01   1.516e-01
	Ca                6.363e-03   6.359e-03

----------------------------Description of solution----------------------------

                                       pH  =   5.318      Charge balance
                                       pe  =   7.503      Adjusted to redox equilibrium
       Specific Conductance (uS/cm, 100 oC) = 3471
                          Density (g/cm3)  =   0.96301
                        Activity of water  =   0.997
                           Ionic strength  =   1.907e-02
                       Mass of water (kg)  =   9.992e-01
                 Total alkalinity (eq/kg)  =   1.273e-02
                       Total CO2 (mol/kg)  =   1.517e-01
                      Temperature (deg C)  = 100.00
                           Pressure (atm)  = 14.42
                  Electrical balance (eq)  =   1.482e-10
 Percent error, 100*(Cat-|An|)/(Cat+|An|)  =   0.00
                               Iterations  =  29
                                  Total H  = 1.109388e+02
                                  Total O  = 5.577896e+01

----------------------------Distribution of species----------------------------

                                               Log       Log       Log    mole V
   Species          Molality    Activity  Molality  Activity     Gamma   cm3/mol

   H+              5.495e-06   4.807e-06    -5.260    -5.318    -0.058      0.00
   OH-             1.422e-07   1.207e-07    -6.847    -6.918    -0.071     -5.86
   H2O             5.551e+01   9.973e-01     1.744    -0.001     0.000     18.79
C(-4)         0.000e+00
   CH4             0.000e+00   0.000e+00   -87.934   -87.932     0.002     32.22
C(4)          1.517e-01
   CO2             1.390e-01   1.396e-01    -0.857    -0.855     0.002     20.88
   HCO3-           1.272e-02   1.092e-02    -1.896    -1.962    -0.066     23.08
   CaCO3           8.142e-06   8.178e-06    -5.089    -5.087     0.002    -14.35
   CO3-2           2.956e-07   1.610e-07    -6.529    -6.793    -0.264     -6.61
   CaHCO3+         0.000e+00   0.000e+00  -114.503  -114.573    -0.069     (0)  
Ca            6.363e-03
   Ca+2            6.355e-03   3.455e-03    -2.197    -2.462    -0.265    -18.73
   CaCO3           8.142e-06   8.178e-06    -5.089    -5.087     0.002    -14.35
   CaOH+           1.395e-10   1.189e-10    -9.855    -9.925    -0.069     (0)  
   CaHCO3+         0.000e+00   0.000e+00  -114.503  -114.573    -0.069     (0)  
H(0)          1.749e-29
   H2              8.745e-30   8.783e-30   -29.058   -29.056     0.002     28.56
O(0)          2.284e-15
   O2              1.142e-15   1.147e-15   -14.942   -14.940     0.002     33.85

------------------------------Saturation indices-------------------------------

	Phase               SI   log IAP   log K(373 K,  14 atm)

	Aragonite        -0.10     -9.25   -9.15  CaCO3
	Calcite           0.00     -9.25   -9.25  CaCO3
	CH4(g)          -84.88    -87.93   -3.05  CH4
	CO2(g)            1.10     -0.86   -1.95  CO2	 Pressure  13.3 atm, phi 0.962.
	H2(g)           -25.96    -29.06   -3.10  H2
	H2O(g)           -0.00     -0.00    0.00  H2O	 Pressure   1.1 atm, phi 0.921.
	O2(g)           -11.82    -14.94   -3.12  O2


Reaction step 10.

Using solution 1.	
Using pure phase assemblage 1.	
Using gas phase 1.	
Using reaction 1.	

Reaction 1.	

	  1.000e-01 moles of the following reaction have been added:

	                 Relative
	Reactant            moles

	CO2                  1.00000

	                 Relative
	Element             moles
	C                    1.00000
	O                    2.00000

-----------------------------------Gas phase-----------------------------------

Total pressure: 16.63      atmospheres          (Peng-Robinson calculation)
    Gas volume:   1.00e+00 liters
  Molar volume:   1.75e+00 liters/mole
   P * Vm / RT:  0.95203  (Compressibility Factor Z) 

                                                        Moles in gas
                                            ----------------------------------
Component         log P           P    phi     Initial       Final       Delta

CO2(g)             1.19   1.553e+01  0.956   4.548e-01   5.328e-01   7.806e-02
H2O(g)             0.04   1.094e+00  0.910   3.681e-02   3.752e-02   7.118e-04

-------------------------------Phase assemblage--------------------------------

                                                      Moles in assemblage
Phase               SI  log IAP  log K(T, P)   Initial       Final       Delta

Calcite          -0.00    -9.25     -9.25    9.994e+00   9.993e+00  -3.659e-04

-----------------------------Solution composition------------------------------

	Elements           Molality       Moles

	C                 1.740e-01   1.739e-01
	Ca                6.730e-03   6.724e-03

----------------------------Description of solution----------------------------

                                       pH  =   5.278      Charge balance
                                       pe  =   7.424      Adjusted to redox equilibrium
       Specific Conductance (uS/cm, 100 oC) = 3657
                          Density (g/cm3)  =   0.96364
                        Activity of water  =   0.997
                           Ionic strength  =   2.017e-02
                       Mass of water (kg)  =   9.992e-01
                 Total alkalinity (eq/kg)  =   1.346e-02
                       Total CO2 (mol/kg)  =   1.740e-01
                      Temperature (deg C)  = 100.00
                           Pressure (atm)  = 16.63
                  Electrical balance (eq)  =   1.271e-10
 Percent error, 100*(Cat-|An|)/(Cat+|An|)  =   0.00
                               Iterations  =  22
                                  Total H  = 1.109374e+02
                                  Total O  = 5.582322e+01

----------------------------Distribution of species----------------------------

                                               Log       Log       Log    mole V
   Species          Molality    Activity  Molality  Activity     Gamma   cm3/mol

   H+              6.045e-06   5.275e-06    -5.219    -5.278    -0.059      0.00
   OH-             1.303e-07   1.102e-07    -6.885    -6.958    -0.073     -5.84
   H2O             5.551e+01   9.969e-01     1.744    -0.001     0.000     18.78
C(-4)         0.000e+00
   CH4             0.000e+00   0.000e+00   -86.919   -86.917     0.002     32.22
C(4)          1.740e-01
   CO2             1.606e-01   1.613e-01    -0.794    -0.792     0.002     20.92
   HCO3-           1.345e-02   1.151e-02    -1.871    -1.939    -0.067     23.10
   CaCO3           8.170e-06   8.208e-06    -5.088    -5.086     0.002    -14.34
   CO3-2           2.885e-07   1.550e-07    -6.540    -6.810    -0.270     -6.55
   CaHCO3+         0.000e+00   0.000e+00  -114.460  -114.531    -0.071     (0)  
Ca            6.730e-03
   Ca+2            6.722e-03   3.605e-03    -2.173    -2.443    -0.271    -18.70
   CaCO3           8.170e-06   8.208e-06    -5.088    -5.086     0.002    -14.34
   CaOH+           1.331e-10   1.131e-10    -9.876    -9.947    -0.071     (0)  
   CaHCO3+         0.000e+00   0.000e+00  -114.460  -114.531    -0.071     (0)  
H(0)          3.021e-29
   H2              1.510e-29   1.517e-29   -28.821   -28.819     0.002     28.56
O(0)          7.616e-16
   O2              3.808e-16   3.826e-16   -15.419   -15.417     0.002     33.85

------------------------------Saturation indices-------------------------------

	Phase               SI   log IAP   log K(373 K,  17 atm)

	Aragonite        -0.10     -9.25   -9.15  CaCO3
	Calcite           0.00     -9.25   -9.25  CaCO3
	CH4(g)          -83.87    -86.92   -3.05  CH4
	CO2(g)            1.16     -0.79   -1.95  CO2	 Pressure  15.5 atm, phi 0.956.
	H2(g)           -25.72    -28.82   -3.10  H2
	H2O(g)           -0.00     -0.00    0.00  H2O	 Pressure   1.1 atm, phi 0.910.
	O2(g)           -12.29    -15.42   -3.12  O2


Reaction step 11.

Using solution 1.	
Using pure phase assemblage 1.	
Using gas phase 1.	
Using reaction 1.	

Reaction 1.	

	  3.000e-01 moles of the following reaction have been added:

	                 Relative
	Reactant            moles

	CO2                  1.00000

	                 Relative
	Element             moles
	C                    1.00000
	O                    2.00000

-----------------------------------Gas phase-----------------------------------

Total pressure: 23.16      atmospheres          (Peng-Robinson calculation)
    Gas volume:   1.00e+00 liters
  Molar volume:   1.24e+00 liters/mole
   P * Vm / RT:  0.93425  (Compressibility Factor Z) 

                                                        Moles in gas
                                            ----------------------------------
Component         log P           P    phi     Initial       Final       Delta

CO2(g)             1.34   2.203e+01  0.940   5.328e-01   7.700e-01   2.372e-01
H2O(g)             0.06   1.137e+00  0.878   3.752e-02   3.974e-02   2.218e-03

-------------------------------Phase assemblage--------------------------------

                                                      Moles in assemblage
Phase               SI  log IAP  log K(T, P)   Initial       Final       Delta

Calcite          -0.00    -9.25     -9.25    9.993e+00   9.992e+00  -9.166e-04

-----------------------------Solution composition------------------------------

	Elements           Molality       Moles

	C                 2.379e-01   2.377e-01
	Ca                7.648e-03   7.641e-03

----------------------------Description of solution----------------------------

                                       pH  =   5.187      Charge balance
                                       pe  =   7.708      Adjusted to redox equilibrium
       Specific Conductance (uS/cm, 100 oC) = 4118
                          Density (g/cm3)  =   0.96546
                        Activity of water  =   0.996
                           Ionic strength  =   2.293e-02
                       Mass of water (kg)  =   9.991e-01
                 Total alkalinity (eq/kg)  =   1.530e-02
                       Total CO2 (mol/kg)  =   2.379e-01
                      Temperature (deg C)  = 100.00
                           Pressure (atm)  = 23.16
                  Electrical balance (eq)  =   1.528e-10
 Percent error, 100*(Cat-|An|)/(Cat+|An|)  =   0.00
                               Iterations  =  23
                                  Total H  = 1.109330e+02
                                  Total O  = 5.594945e+01

----------------------------Distribution of species----------------------------

                                               Log       Log       Log    mole V
   Species          Molality    Activity  Molality  Activity     Gamma   cm3/mol

   H+              7.500e-06   6.504e-06    -5.125    -5.187    -0.062      0.00
   OH-             1.071e-07   8.972e-08    -6.970    -7.047    -0.077     -5.78
   H2O             5.551e+01   9.958e-01     1.744    -0.002     0.000     18.78
C(-4)         0.000e+00
   CH4             0.000e+00   0.000e+00   -88.328   -88.326     0.002     32.22
C(4)          2.379e-01
   CO2             2.226e-01   2.238e-01    -0.653    -0.650     0.002     21.03
   HCO3-           1.529e-02   1.298e-02    -1.816    -1.887    -0.071     23.16
   CaCO3           8.254e-06   8.298e-06    -5.083    -5.081     0.002    -14.30
   CO3-2           2.740e-07   1.427e-07    -6.562    -6.846    -0.284     -6.41
   CaHCO3+         0.000e+00   0.000e+00  -114.359  -114.434    -0.075     (0)  
Ca            7.648e-03
   Ca+2            7.639e-03   3.969e-03    -2.117    -2.401    -0.284    -18.59
   CaCO3           8.254e-06   8.298e-06    -5.083    -5.081     0.002    -14.30
   CaOH+           1.198e-10   1.008e-10    -9.922    -9.996    -0.075     (0)  
   CaHCO3+         0.000e+00   0.000e+00  -114.359  -114.434    -0.075     (0)  
H(0)          1.232e-29
   H2              6.159e-30   6.191e-30   -29.211   -29.208     0.002     28.56
O(0)          4.511e-15
   O2              2.255e-15   2.267e-15   -14.647   -14.645     0.002     33.83

------------------------------Saturation indices-------------------------------

	Phase               SI   log IAP   log K(373 K,  23 atm)

	Aragonite        -0.10     -9.25   -9.15  CaCO3
	Calcite          -0.00     -9.25   -9.25  CaCO3
	CH4(g)          -85.28    -88.33   -3.04  CH4
	CO2(g)            1.30     -0.65   -1.95  CO2	 Pressure  22.0 atm, phi 0.940.
	H2(g)           -26.11    -29.21   -3.10  H2
	H2O(g)           -0.00     -0.00   -0.00  H2O	 Pressure   1.1 atm, phi 0.878.
	O2(g)           -11.52    -14.64   -3.13  O2


Reaction step 12.

Using solution 1.	
Using pure phase assemblage 1.	
Using gas phase 1.	
Using reaction 1.	

Reaction 1.	

	  3.000e-01 moles of the following reaction have been added:

	                 Relative
	Reactant            moles

	CO2                  1.00000

	                 Relative
	Element             moles
	C                    1.00000
	O                    2.00000

-----------------------------------Gas phase-----------------------------------

Total pressure: 29.57      atmospheres          (Peng-Robinson calculation)
    Gas volume:   1.00e+00 liters
  Molar volume:   9.49e-01 liters/mole
   P * Vm / RT:  0.91679  (Compressibility Factor Z) 

                                                        Moles in gas
                                            ----------------------------------
Component         log P           P    phi     Initial       Final       Delta

CO2(g)             1.45   2.839e+01  0.924   7.700e-01   1.011e+00   2.414e-01
H2O(g)             0.07   1.181e+00  0.847   3.974e-02   4.209e-02   2.345e-03

-------------------------------Phase assemblage--------------------------------

                                                      Moles in assemblage
Phase               SI  log IAP  log K(T, P)   Initial       Final       Delta

Calcite          -0.00    -9.24     -9.24    9.992e+00   9.992e+00  -7.359e-04

-----------------------------Solution composition------------------------------

	Elements           Molality       Moles

	C                 2.973e-01   2.971e-01
	Ca                8.385e-03   8.377e-03

----------------------------Description of solution----------------------------

                                       pH  =   5.122      Charge balance
                                       pe  =   7.875      Adjusted to redox equilibrium
       Specific Conductance (uS/cm, 100 oC) = 4485
                          Density (g/cm3)  =   0.96714
                        Activity of water  =   0.995
                           Ionic strength  =   2.514e-02
                       Mass of water (kg)  =   9.991e-01
                 Total alkalinity (eq/kg)  =   1.677e-02
                       Total CO2 (mol/kg)  =   2.973e-01
                      Temperature (deg C)  = 100.00
                           Pressure (atm)  = 29.57
                  Electrical balance (eq)  =   1.725e-10
 Percent error, 100*(Cat-|An|)/(Cat+|An|)  =   0.00
                               Iterations  =  21
                                  Total H  = 1.109283e+02
                                  Total O  = 5.606661e+01

----------------------------Distribution of species----------------------------

                                               Log       Log       Log    mole V
   Species          Molality    Activity  Molality  Activity     Gamma   cm3/mol

   H+              8.737e-06   7.543e-06    -5.059    -5.122    -0.064      0.00
   OH-             9.333e-08   7.767e-08    -7.030    -7.110    -0.080     -5.73
   H2O             5.551e+01   9.948e-01     1.744    -0.002     0.000     18.77
C(-4)         0.000e+00
   CH4             0.000e+00   0.000e+00   -89.049   -89.047     0.003     32.22
C(4)          2.973e-01
   CO2             2.806e-01   2.822e-01    -0.552    -0.549     0.003     21.13
   HCO3-           1.676e-02   1.415e-02    -1.776    -1.849    -0.073     23.21
   CaCO3           8.339e-06   8.387e-06    -5.079    -5.076     0.003    -14.26
   CO3-2           2.653e-07   1.349e-07    -6.576    -6.870    -0.294     -6.29
   CaHCO3+         0.000e+00   0.000e+00  -114.287  -114.364    -0.077     (0)  
Ca            8.385e-03
   Ca+2            8.376e-03   4.251e-03    -2.077    -2.372    -0.295    -18.50
   CaCO3           8.339e-06   8.387e-06    -5.079    -5.076     0.003    -14.26
   CaOH+           1.112e-10   9.303e-11    -9.954   -10.031    -0.077     (0)  
   CaHCO3+         0.000e+00   0.000e+00  -114.287  -114.364    -0.077     (0)  
H(0)          7.641e-30
   H2              3.821e-30   3.843e-30   -29.418   -29.415     0.003     28.56
O(0)          1.155e-14
   O2              5.774e-15   5.808e-15   -14.239   -14.236     0.003     33.80

------------------------------Saturation indices-------------------------------

	Phase               SI   log IAP   log K(373 K,  30 atm)

	Aragonite        -0.10     -9.24   -9.14  CaCO3
	Calcite          -0.00     -9.24   -9.24  CaCO3
	CH4(g)          -86.01    -89.05   -3.04  CH4
	CO2(g)            1.40     -0.55   -1.95  CO2	 Pressure  28.4 atm, phi 0.924.
	H2(g)           -26.31    -29.42   -3.10  H2
	H2O(g)            0.00     -0.00   -0.00  H2O	 Pressure   1.2 atm, phi 0.847.
	O2(g)           -11.11    -14.24   -3.13  O2


Reaction step 13.

Using solution 1.	
Using pure phase assemblage 1.	
Using gas phase 1.	
Using reaction 1.	

Reaction 1.	

	  3.000e-01 moles of the following reaction have been added:

	                 Relative
	Reactant            moles

	CO2                  1.00000

	                 Relative
	Element             moles
	C                    1.00000
	O                    2.00000

-----------------------------------Gas phase-----------------------------------

Total pressure: 35.85      atmospheres          (Peng-Robinson calculation)
    Gas volume:   1.00e+00 liters
  Molar volume:   7.69e-01 liters/mole
   P * Vm / RT:  0.89969  (Compressibility Factor Z) 

                                                        Moles in gas
                                            ----------------------------------
Component         log P           P    phi     Initial       Final       Delta

CO2(g)             1.54   3.462e+01  0.908   1.011e+00   1.257e+00   2.453e-01
H2O(g)             0.09   1.228e+00  0.818   4.209e-02   4.456e-02   2.474e-03

-------------------------------Phase assemblage--------------------------------

                                                      Moles in assemblage
Phase               SI  log IAP  log K(T, P)   Initial       Final       Delta

Calcite          -0.00    -9.24     -9.24    9.992e+00   9.991e+00  -6.171e-04

-----------------------------Solution composition------------------------------

	Elements           Molality       Moles

	C                 3.527e-01   3.524e-01
	Ca                9.003e-03   8.994e-03

----------------------------Description of solution----------------------------

                                       pH  =   5.073      Charge balance
                                       pe  =   7.993      Adjusted to redox equilibrium
       Specific Conductance (uS/cm, 100 oC) = 4790
                          Density (g/cm3)  =   0.96870
                        Activity of water  =   0.994
                           Ionic strength  =   2.699e-02
                       Mass of water (kg)  =   9.990e-01
                 Total alkalinity (eq/kg)  =   1.801e-02
                       Total CO2 (mol/kg)  =   3.527e-01
                      Temperature (deg C)  = 100.00
                           Pressure (atm)  = 35.85
                  Electrical balance (eq)  =   1.542e-10
 Percent error, 100*(Cat-|An|)/(Cat+|An|)  =   0.00
                               Iterations  =  23
                                  Total H  = 1.109233e+02
                                  Total O  = 5.617542e+01

----------------------------Distribution of species----------------------------

                                               Log       Log       Log    mole V
   Species          Molality    Activity  Molality  Activity     Gamma   cm3/mol

   H+              9.815e-06   8.445e-06    -5.008    -5.073    -0.065      0.00
   OH-             8.417e-08   6.966e-08    -7.075    -7.157    -0.082     -5.69
   H2O             5.551e+01   9.939e-01     1.744    -0.003     0.000     18.77
C(-4)         0.000e+00
   CH4             0.000e+00   0.000e+00   -89.529   -89.527     0.003     32.22
C(4)          3.527e-01
   CO2             3.347e-01   3.368e-01    -0.475    -0.473     0.003     21.24
   HCO3-           1.800e-02   1.513e-02    -1.745    -1.820    -0.075     23.25
   CaCO3           8.422e-06   8.475e-06    -5.075    -5.072     0.003    -14.22
   CO3-2           2.596e-07   1.296e-07    -6.586    -6.887    -0.302     -6.18
   CaHCO3+         0.000e+00   0.000e+00  -114.230  -114.310    -0.080     (0)  
Ca            9.003e-03
   Ca+2            8.994e-03   4.481e-03    -2.046    -2.349    -0.303    -18.42
   CaCO3           8.422e-06   8.475e-06    -5.075    -5.072     0.003    -14.22
   CaOH+           1.051e-10   8.752e-11    -9.978   -10.058    -0.080     (0)  
   CaHCO3+         0.000e+00   0.000e+00  -114.230  -114.310    -0.080     (0)  
H(0)          5.522e-30
   H2              2.761e-30   2.778e-30   -29.559   -29.556     0.003     28.55
O(0)          2.181e-14
   O2              1.090e-14   1.097e-14   -13.962   -13.960     0.003     33.78

------------------------------Saturation indices-------------------------------

	Phase               SI   log IAP   log K(373 K,  36 atm)

	Aragonite        -0.10     -9.24   -9.14  CaCO3
	Calcite           0.00     -9.24   -9.24  CaCO3
	CH4(g)          -86.49    -89.53   -3.03  CH4
	CO2(g)            1.47     -0.47   -1.95  CO2	 Pressure  34.6 atm, phi 0.908.
	H2(g)           -26.46    -29.56   -3.10  H2
	H2O(g)            0.00     -0.00   -0.00  H2O	 Pressure   1.2 atm, phi 0.818.
	O2(g)           -10.83    -13.96   -3.13  O2


Reaction step 14.

Using solution 1.	
Using pure phase assemblage 1.	
Using gas phase 1.	
Using reaction 1.	

Reaction 1.	

	  3.000e-01 moles of the following reaction have been added:

	                 Relative
	Reactant            moles

	CO2                  1.00000

	                 Relative
	Element             moles
	C                    1.00000
	O                    2.00000

-----------------------------------Gas phase-----------------------------------

Total pressure: 41.98      atmospheres          (Peng-Robinson calculation)
    Gas volume:   1.00e+00 liters
  Molar volume:   6.44e-01 liters/mole
   P * Vm / RT:  0.88298  (Compressibility Factor Z) 

                                                        Moles in gas
                                            ----------------------------------
Component         log P           P    phi     Initial       Final       Delta

CO2(g)             1.61   4.071e+01  0.893   1.257e+00   1.506e+00   2.490e-01
H2O(g)             0.11   1.275e+00  0.789   4.456e-02   4.717e-02   2.607e-03

-------------------------------Phase assemblage--------------------------------

                                                      Moles in assemblage
Phase               SI  log IAP  log K(T, P)   Initial       Final       Delta

Calcite          -0.00    -9.23     -9.23    9.991e+00   9.990e+00  -5.314e-04

-----------------------------Solution composition------------------------------

	Elements           Molality       Moles

	C                 4.044e-01   4.040e-01
	Ca                9.535e-03   9.525e-03

----------------------------Description of solution----------------------------

                                       pH  =   5.034      Charge balance
                                       pe  =   8.048      Adjusted to redox equilibrium
       Specific Conductance (uS/cm, 100 oC) = 5052
                          Density (g/cm3)  =   0.97015
                        Activity of water  =   0.993
                           Ionic strength  =   2.859e-02
                       Mass of water (kg)  =   9.990e-01
                 Total alkalinity (eq/kg)  =   1.907e-02
                       Total CO2 (mol/kg)  =   4.044e-01
                      Temperature (deg C)  = 100.00
                           Pressure (atm)  = 41.98
                  Electrical balance (eq)  =   1.364e-10
 Percent error, 100*(Cat-|An|)/(Cat+|An|)  =   0.00
                               Iterations  =  24
                                  Total H  = 1.109181e+02
                                  Total O  = 5.627648e+01

----------------------------Distribution of species----------------------------

                                               Log       Log       Log    mole V
   Species          Molality    Activity  Molality  Activity     Gamma   cm3/mol

   H+              1.077e-05   9.239e-06    -4.968    -5.034    -0.067      0.00
   OH-             7.758e-08   6.392e-08    -7.110    -7.194    -0.084     -5.65
   H2O             5.551e+01   9.930e-01     1.744    -0.003     0.000     18.76
C(-4)         0.000e+00
   CH4             0.000e+00   0.000e+00   -89.597   -89.595     0.003     32.22
C(4)          4.044e-01
   CO2             3.853e-01   3.878e-01    -0.414    -0.411     0.003     21.34
   HCO3-           1.906e-02   1.596e-02    -1.720    -1.797    -0.077     23.29
   CaCO3           8.506e-06   8.562e-06    -5.070    -5.067     0.003    -14.18
   CO3-2           2.557e-07   1.257e-07    -6.592    -6.901    -0.308     -6.08
   CaHCO3+         0.000e+00   0.000e+00  -114.184  -114.265    -0.081     (0)  
Ca            9.535e-03
   Ca+2            9.527e-03   4.675e-03    -2.021    -2.330    -0.309    -18.34
   CaCO3           8.506e-06   8.562e-06    -5.070    -5.067     0.003    -14.18
   CaOH+           1.006e-10   8.338e-11    -9.998   -10.079    -0.081     (0)  
   CaHCO3+         0.000e+00   0.000e+00  -114.184  -114.265    -0.081     (0)  
H(0)          5.104e-30
   H2              2.552e-30   2.569e-30   -29.593   -29.590     0.003     28.55
O(0)          2.517e-14
   O2              1.259e-14   1.267e-14   -13.900   -13.897     0.003     33.76

------------------------------Saturation indices-------------------------------

	Phase               SI   log IAP   log K(373 K,  42 atm)

	Aragonite        -0.10     -9.23   -9.13  CaCO3
	Calcite           0.00     -9.23   -9.23  CaCO3
	CH4(g)          -86.57    -89.59   -3.03  CH4
	CO2(g)            1.53     -0.41   -1.95  CO2	 Pressure  40.7 atm, phi 0.893.
	H2(g)           -26.49    -29.59   -3.10  H2
	H2O(g)            0.00     -0.00   -0.01  H2O	 Pressure   1.3 atm, phi 0.789.
	O2(g)           -10.76    -13.90   -3.14  O2


Reaction step 15.

Using solution 1.	
Using pure phase assemblage 1.	
Using gas phase 1.	
Using reaction 1.	

Reaction 1.	

	  3.000e-01 moles of the following reaction have been added:

	                 Relative
	Reactant            moles

	CO2                  1.00000

	                 Relative
	Element             moles
	C                    1.00000
	O                    2.00000

-----------------------------------Gas phase-----------------------------------

Total pressure: 47.98      atmospheres          (Peng-Robinson calculation)
    Gas volume:   1.00e+00 liters
  Molar volume:   5.53e-01 liters/mole
   P * Vm / RT:  0.86669  (Compressibility Factor Z) 

                                                        Moles in gas
                                            ----------------------------------
Component         log P           P    phi     Initial       Final       Delta

CO2(g)             1.67   4.665e+01  0.879   1.506e+00   1.758e+00   2.524e-01
H2O(g)             0.12   1.325e+00  0.762   4.717e-02   4.991e-02   2.742e-03

-------------------------------Phase assemblage--------------------------------

                                                      Moles in assemblage
Phase               SI  log IAP  log K(T, P)   Initial       Final       Delta

Calcite          -0.00    -9.23     -9.23    9.990e+00   9.990e+00  -4.659e-04

-----------------------------Solution composition------------------------------

	Elements           Molality       Moles

	C                 4.525e-01   4.520e-01
	Ca                1.000e-02   9.991e-03

----------------------------Description of solution----------------------------

                                       pH  =   5.002      Charge balance
                                       pe  =   8.022      Adjusted to redox equilibrium
       Specific Conductance (uS/cm, 100 oC) = 5280
                          Density (g/cm3)  =   0.97149
                        Activity of water  =   0.992
                           Ionic strength  =   2.999e-02
                       Mass of water (kg)  =   9.989e-01
                 Total alkalinity (eq/kg)  =   2.000e-02
                       Total CO2 (mol/kg)  =   4.525e-01
                      Temperature (deg C)  = 100.00
                           Pressure (atm)  = 47.98
                  Electrical balance (eq)  =   1.253e-10
 Percent error, 100*(Cat-|An|)/(Cat+|An|)  =   0.00
                               Iterations  =  25
                                  Total H  = 1.109126e+02
                                  Total O  = 5.637033e+01

----------------------------Distribution of species----------------------------

                                               Log       Log       Log    mole V
   Species          Molality    Activity  Molality  Activity     Gamma   cm3/mol

   H+              1.162e-05   9.946e-06    -4.935    -5.002    -0.068      0.00
   OH-             7.262e-08   5.961e-08    -7.139    -7.225    -0.086     -5.61
   H2O             5.551e+01   9.921e-01     1.744    -0.003     0.000     18.76
C(-4)         0.000e+00
   CH4             0.000e+00   0.000e+00   -89.086   -89.083     0.003     32.22
C(4)          4.525e-01
   CO2             4.325e-01   4.355e-01    -0.364    -0.361     0.003     21.44
   HCO3-           2.000e-02   1.669e-02    -1.699    -1.777    -0.078     23.33
   CaCO3           8.588e-06   8.647e-06    -5.066    -5.063     0.003    -14.15
   CO3-2           2.530e-07   1.228e-07    -6.597    -6.911    -0.314     -5.98
   CaHCO3+         0.000e+00   0.000e+00  -114.145  -114.228    -0.083     (0)  
Ca            1.000e-02
   Ca+2            9.994e-03   4.842e-03    -2.000    -2.315    -0.315    -18.27
   CaCO3           8.588e-06   8.647e-06    -5.066    -5.063     0.003    -14.15
   CaOH+           9.702e-11   8.016e-11   -10.013   -10.096    -0.083     (0)  
   CaHCO3+         0.000e+00   0.000e+00  -114.145  -114.228    -0.083     (0)  
H(0)          6.631e-30
   H2              3.316e-30   3.339e-30   -29.479   -29.476     0.003     28.55
O(0)          1.472e-14
   O2              7.362e-15   7.413e-15   -14.133   -14.130     0.003     33.74

------------------------------Saturation indices-------------------------------

	Phase               SI   log IAP   log K(373 K,  48 atm)

	Aragonite        -0.10     -9.23   -9.13  CaCO3
	Calcite           0.00     -9.23   -9.23  CaCO3
	CH4(g)          -86.06    -89.08   -3.02  CH4
	CO2(g)            1.58     -0.36   -1.94  CO2	 Pressure  46.7 atm, phi 0.879.
	H2(g)           -26.38    -29.48   -3.10  H2
	H2O(g)            0.00     -0.00   -0.01  H2O	 Pressure   1.3 atm, phi 0.762.
	O2(g)           -10.99    -14.13   -3.14  O2


Reaction step 16.

Using solution 1.	
Using pure phase assemblage 1.	
Using gas phase 1.	
Using reaction 1.	

Reaction 1.	

	  3.000e-01 moles of the following reaction have been added:

	                 Relative
	Reactant            moles

	CO2                  1.00000

	                 Relative
	Element             moles
	C                    1.00000
	O                    2.00000

-----------------------------------Gas phase-----------------------------------

Total pressure: 53.84      atmospheres          (Peng-Robinson calculation)
    Gas volume:   1.00e+00 liters
  Molar volume:   4.84e-01 liters/mole
   P * Vm / RT:  0.85083  (Compressibility Factor Z) 

                                                        Moles in gas
                                            ----------------------------------
Component         log P           P    phi     Initial       Final       Delta

CO2(g)             1.72   5.246e+01  0.865   1.758e+00   2.014e+00   2.556e-01
H2O(g)             0.14   1.375e+00  0.736   4.991e-02   5.279e-02   2.880e-03

-------------------------------Phase assemblage--------------------------------

                                                      Moles in assemblage
Phase               SI  log IAP  log K(T, P)   Initial       Final       Delta

Calcite          -0.00    -9.22     -9.22    9.990e+00   9.990e+00  -4.138e-04

-----------------------------Solution composition------------------------------

	Elements           Molality       Moles

	C                 4.974e-01   4.968e-01
	Ca                1.042e-02   1.041e-02

----------------------------Description of solution----------------------------

                                       pH  =   4.975      Charge balance
                                       pe  =   8.096      Adjusted to redox equilibrium
       Specific Conductance (uS/cm, 100 oC) = 5482
                          Density (g/cm3)  =   0.97275
                        Activity of water  =   0.991
                           Ionic strength  =   3.124e-02
                       Mass of water (kg)  =   9.989e-01
                 Total alkalinity (eq/kg)  =   2.083e-02
                       Total CO2 (mol/kg)  =   4.974e-01
                      Temperature (deg C)  = 100.00
                           Pressure (atm)  = 53.84
                  Electrical balance (eq)  =   1.135e-10
 Percent error, 100*(Cat-|An|)/(Cat+|An|)  =   0.00
                               Iterations  =  25
                                  Total H  = 1.109069e+02
                                  Total O  = 5.645747e+01

----------------------------Distribution of species----------------------------

                                               Log       Log       Log    mole V
   Species          Molality    Activity  Molality  Activity     Gamma   cm3/mol

   H+              1.239e-05   1.058e-05    -4.907    -4.975    -0.068      0.00
   OH-             6.875e-08   5.624e-08    -7.163    -7.250    -0.087     -5.57
   H2O             5.551e+01   9.914e-01     1.744    -0.004     0.000     18.75
C(-4)         0.000e+00
   CH4             0.000e+00   0.000e+00   -89.427   -89.424     0.003     32.22
C(4)          4.974e-01
   CO2             4.765e-01   4.800e-01    -0.322    -0.319     0.003     21.54
   HCO3-           2.083e-02   1.734e-02    -1.681    -1.761    -0.080     23.37
   CaCO3           8.669e-06   8.732e-06    -5.062    -5.059     0.003    -14.11
   CO3-2           2.511e-07   1.206e-07    -6.600    -6.919    -0.319     -5.89
   CaHCO3+         0.000e+00   0.000e+00  -114.112  -114.196    -0.084     (0)  
Ca            1.042e-02
   Ca+2            1.041e-02   4.989e-03    -1.983    -2.302    -0.319    -18.21
   CaCO3           8.669e-06   8.732e-06    -5.062    -5.059     0.003    -14.11
   CaOH+           9.417e-11   7.757e-11   -10.026   -10.110    -0.084     (0)  
   CaHCO3+         0.000e+00   0.000e+00  -114.112  -114.196    -0.084     (0)  
H(0)          5.297e-30
   H2              2.648e-30   2.667e-30   -29.577   -29.574     0.003     28.54
O(0)          2.279e-14
   O2              1.139e-14   1.148e-14   -13.943   -13.940     0.003     33.72

------------------------------Saturation indices-------------------------------

	Phase               SI   log IAP   log K(373 K,  54 atm)

	Aragonite        -0.10     -9.22   -9.12  CaCO3
	Calcite           0.00     -9.22   -9.22  CaCO3
	CH4(g)          -86.41    -89.42   -3.02  CH4
	CO2(g)            1.62     -0.32   -1.94  CO2	 Pressure  52.5 atm, phi 0.865.
	H2(g)           -26.47    -29.57   -3.10  H2
	H2O(g)            0.01     -0.00   -0.01  H2O	 Pressure   1.4 atm, phi 0.736.
	O2(g)           -10.80    -13.94   -3.14  O2


Reaction step 17.

Using solution 1.	
Using pure phase assemblage 1.	
Using gas phase 1.	
Using reaction 1.	

Reaction 1.	

	  3.000e-01 moles of the following reaction have been added:

	                 Relative
	Reactant            moles

	CO2                  1.00000

	                 Relative
	Element             moles
	C                    1.00000
	O                    2.00000

-----------------------------------Gas phase-----------------------------------

Total pressure: 59.55      atmospheres          (Peng-Robinson calculation)
    Gas volume:   1.00e+00 liters
  Molar volume:   4.30e-01 liters/mole
   P * Vm / RT:  0.83543  (Compressibility Factor Z) 

                                                        Moles in gas
                                            ----------------------------------
Component         log P           P    phi     Initial       Final       Delta

CO2(g)             1.76   5.813e+01  0.852   2.014e+00   2.272e+00   2.586e-01
H2O(g)             0.15   1.428e+00  0.711   5.279e-02   5.581e-02   3.020e-03

-------------------------------Phase assemblage--------------------------------

                                                      Moles in assemblage
Phase               SI  log IAP  log K(T, P)   Initial       Final       Delta

Calcite          -0.00    -9.22     -9.22    9.990e+00   9.989e+00  -3.712e-04

-----------------------------Solution composition------------------------------

	Elements           Molality       Moles

	C                 5.392e-01   5.386e-01
	Ca                1.079e-02   1.078e-02

----------------------------Description of solution----------------------------

                                       pH  =   4.953      Charge balance
                                       pe  =   8.097      Adjusted to redox equilibrium
       Specific Conductance (uS/cm, 100 oC) = 5663
                          Density (g/cm3)  =   0.97392
                        Activity of water  =   0.991
                           Ionic strength  =   3.235e-02
                       Mass of water (kg)  =   9.988e-01
                 Total alkalinity (eq/kg)  =   2.158e-02
                       Total CO2 (mol/kg)  =   5.392e-01
                      Temperature (deg C)  = 100.00
                           Pressure (atm)  = 59.55
                  Electrical balance (eq)  =   1.020e-10
 Percent error, 100*(Cat-|An|)/(Cat+|An|)  =   0.00
                               Iterations  =  25
                                  Total H  = 1.109008e+02
                                  Total O  = 5.653837e+01

----------------------------Distribution of species----------------------------

                                               Log       Log       Log    mole V
   Species          Molality    Activity  Molality  Activity     Gamma   cm3/mol

   H+              1.308e-05   1.115e-05    -4.883    -4.953    -0.069      0.00
   OH-             6.565e-08   5.355e-08    -7.183    -7.271    -0.088     -5.53
   H2O             5.551e+01   9.906e-01     1.744    -0.004     0.000     18.74
C(-4)         0.000e+00
   CH4             0.000e+00   0.000e+00   -89.217   -89.213     0.003     32.22
C(4)          5.392e-01
   CO2             5.177e-01   5.215e-01    -0.286    -0.283     0.003     21.63
   HCO3-           2.157e-02   1.792e-02    -1.666    -1.747    -0.081     23.40
   CaCO3           8.749e-06   8.815e-06    -5.058    -5.055     0.003    -14.08
   CO3-2           2.498e-07   1.188e-07    -6.602    -6.925    -0.323     -5.81
   CaHCO3+         0.000e+00   0.000e+00  -114.083  -114.169    -0.085     (0)  
Ca            1.079e-02
   Ca+2            1.078e-02   5.119e-03    -1.967    -2.291    -0.323    -18.15
   CaCO3           8.749e-06   8.815e-06    -5.058    -5.055     0.003    -14.08
   CaOH+           9.183e-11   7.545e-11   -10.037   -10.122    -0.085     (0)  
   CaHCO3+         0.000e+00   0.000e+00  -114.083  -114.169    -0.085     (0)  
H(0)          5.835e-30
   H2              2.918e-30   2.939e-30   -29.535   -29.532     0.003     28.54
O(0)          1.855e-14
   O2              9.275e-15   9.344e-15   -14.033   -14.029     0.003     33.71

------------------------------Saturation indices-------------------------------

	Phase               SI   log IAP   log K(373 K,  60 atm)

	Aragonite        -0.10     -9.22   -9.12  CaCO3
	Calcite           0.00     -9.22   -9.22  CaCO3
	CH4(g)          -86.20    -89.21   -3.01  CH4
	CO2(g)            1.66     -0.28   -1.94  CO2	 Pressure  58.1 atm, phi 0.852.
	H2(g)           -26.43    -29.53   -3.10  H2
	H2O(g)            0.01     -0.00   -0.01  H2O	 Pressure   1.4 atm, phi 0.711.
	O2(g)           -10.88    -14.03   -3.15  O2


Reaction step 18.

Using solution 1.	
Using pure phase assemblage 1.	
Using gas phase 1.	
Using reaction 1.	

Reaction 1.	

	  3.000e-01 moles of the following reaction have been added:

	                 Relative
	Reactant            moles

	CO2                  1.00000

	                 Relative
	Element             moles
	C                    1.00000
	O                    2.00000

-----------------------------------Gas phase-----------------------------------

Total pressure: 65.13      atmospheres          (Peng-Robinson calculation)
    Gas volume:   1.00e+00 liters
  Molar volume:   3.86e-01 liters/mole
   P * Vm / RT:  0.82048  (Compressibility Factor Z) 

                                                        Moles in gas
                                            ----------------------------------
Component         log P           P    phi     Initial       Final       Delta

CO2(g)             1.80   6.365e+01  0.839   2.272e+00   2.534e+00   2.614e-01
H2O(g)             0.17   1.482e+00  0.687   5.581e-02   5.897e-02   3.162e-03

-------------------------------Phase assemblage--------------------------------

                                                      Moles in assemblage
Phase               SI  log IAP  log K(T, P)   Initial       Final       Delta

Calcite          -0.00    -9.21     -9.21    9.989e+00   9.989e+00  -3.356e-04

-----------------------------Solution composition------------------------------

	Elements           Molality       Moles

	C                 5.783e-01   5.776e-01
	Ca                1.113e-02   1.111e-02

----------------------------Description of solution----------------------------

                                       pH  =   4.933      Charge balance
                                       pe  =   8.133      Adjusted to redox equilibrium
       Specific Conductance (uS/cm, 100 oC) = 5826
                          Density (g/cm3)  =   0.97501
                        Activity of water  =   0.990
                           Ionic strength  =   3.337e-02
                       Mass of water (kg)  =   9.987e-01
                 Total alkalinity (eq/kg)  =   2.225e-02
                       Total CO2 (mol/kg)  =   5.783e-01
                      Temperature (deg C)  = 100.00
                           Pressure (atm)  = 65.13
                  Electrical balance (eq)  =   9.227e-11
 Percent error, 100*(Cat-|An|)/(Cat+|An|)  =   0.00
                               Iterations  =  25
                                  Total H  = 1.108945e+02
                                  Total O  = 5.661348e+01

----------------------------Distribution of species----------------------------

                                               Log       Log       Log    mole V
   Species          Molality    Activity  Molality  Activity     Gamma   cm3/mol

   H+              1.371e-05   1.167e-05    -4.863    -4.933    -0.070      0.00
   OH-             6.311e-08   5.135e-08    -7.200    -7.289    -0.090     -5.50
   H2O             5.551e+01   9.900e-01     1.744    -0.004     0.000     18.74
C(-4)         0.000e+00
   CH4             0.000e+00   0.000e+00   -89.318   -89.314     0.003     32.22
C(4)          5.783e-01
   CO2             5.560e-01   5.603e-01    -0.255    -0.252     0.003     21.72
   HCO3-           2.225e-02   1.844e-02    -1.653    -1.734    -0.082     23.43
   CaCO3           8.828e-06   8.896e-06    -5.054    -5.051     0.003    -14.04
   CO3-2           2.489e-07   1.174e-07    -6.604    -6.930    -0.326     -5.73
   CaHCO3+         0.000e+00   0.000e+00  -114.058  -114.144    -0.086     (0)  
Ca            1.113e-02
   Ca+2            1.112e-02   5.235e-03    -1.954    -2.281    -0.327    -18.09
   CaCO3           8.828e-06   8.896e-06    -5.054    -5.051     0.003    -14.04
   CaOH+           8.987e-11   7.368e-11   -10.046   -10.133    -0.086     (0)  
   CaHCO3+         0.000e+00   0.000e+00  -114.058  -114.144    -0.086     (0)  
H(0)          5.389e-30
   H2              2.694e-30   2.715e-30   -29.570   -29.566     0.003     28.54
O(0)          2.149e-14
   O2              1.075e-14   1.083e-14   -13.969   -13.965     0.003     33.69

------------------------------Saturation indices-------------------------------

	Phase               SI   log IAP   log K(373 K,  65 atm)

	Aragonite        -0.10     -9.21   -9.11  CaCO3
	Calcite           0.00     -9.21   -9.21  CaCO3
	CH4(g)          -86.31    -89.31   -3.01  CH4
	CO2(g)            1.69     -0.25   -1.94  CO2	 Pressure  63.7 atm, phi 0.839.
	H2(g)           -26.47    -29.57   -3.10  H2
	H2O(g)            0.01     -0.00   -0.01  H2O	 Pressure   1.5 atm, phi 0.687.
	O2(g)           -10.82    -13.97   -3.15  O2


------------------
End of simulation.
------------------

------------------------------------
Reading input data for simulation 2.
------------------------------------

------------------------------
End of Run after 0.04 Seconds.
------------------------------

