   Input file: cc_P
  Output file: cc_P.out
Database file: ../database/vreeqc.dat

------------------
Reading data base.
------------------

	KNOBS
	SOLUTION_MASTER_SPECIES
	SOLUTION_SPECIES
	PHASES
	EXCHANGE_MASTER_SPECIES
	EXCHANGE_SPECIES
	SURFACE_MASTER_SPECIES
	SURFACE_SPECIES
	RATES
	END
------------------------------------
Reading input data for simulation 1.
------------------------------------

	database ../database/vreeqc.dat
	SOLUTION 1
	 pressure 1
	EQUILIBRIUM_PHASES 1
	 Calcite
	REACTION_PRESSURE
		1 1000 in 20 steps
	USER_GRAPH
	-axis_titles "Pressure / atm" "Ca / ppm"
	 -plot_csv_file cc_P.dat
	 10 graph_x  pressure
	 20 graph_y tot("Ca") * 40e3
	 -end
	END
-------------------------------------------
Beginning of initial solution calculations.
-------------------------------------------

Initial solution 1.	

-----------------------------Solution composition------------------------------

	Elements           Molality       Moles

	Pure water     

----------------------------Description of solution----------------------------

                                       pH  =   7.000    
                                       pe  =   4.000    
       Specific Conductance (uS/cm, 25 oC) = 0
                          Density (g/cm3)  =   0.99709
                        Activity of water  =   1.000
                           Ionic strength  =   1.001e-07
                       Mass of water (kg)  =   1.000e+00
                 Total alkalinity (eq/kg)  =   1.082e-10
                    Total carbon (mol/kg)  =   0.000e+00
                       Total CO2 (mol/kg)  =   0.000e+00
                      Temperature (deg C)  =  25.00
                  Electrical balance (eq)  =  -1.082e-10
 Percent error, 100*(Cat-|An|)/(Cat+|An|)  =  -0.05
                               Iterations  =   0
                                  Total H  = 1.110124e+02
                                  Total O  = 5.550622e+01

----------------------------Distribution of species----------------------------

                                                   Log       Log         Log 
   Species                 Molality    Activity  Molality  Activity     Gamma

   OH-                    1.002e-07   1.001e-07    -6.999    -6.999    -0.000
   H+                     1.001e-07   1.000e-07    -7.000    -7.000    -0.000
   H2O                    5.551e+01   1.000e+00     1.744     0.000     0.000
H(0)             1.416e-25
   H2                     7.079e-26   7.079e-26   -25.150   -25.150     0.000
O(0)             0.000e+00
   O2                     0.000e+00   0.000e+00   -42.080   -42.080     0.000

------------------------------Saturation indices-------------------------------

	Phase               SI   log IAP   log K(298 K,   1 atm)

	H2(g)           -22.05    -25.15   -3.10  H2
	H2O(g)           -1.51      0.00    1.51  H2O
	O2(g)           -39.19    -42.08   -2.89  O2


-----------------------------------------
Beginning of batch-reaction calculations.
-----------------------------------------

Reaction step 1.

Using solution 1.	
Using pure phase assemblage 1.	
Using pressure 1.	

-------------------------------Phase assemblage--------------------------------

                                                      Moles in assemblage
Phase               SI  log IAP  log K(T, P)   Initial       Final       Delta

Calcite          -0.00    -8.48     -8.48    1.000e+01   1.000e+01  -1.227e-04

-----------------------------Solution composition------------------------------

	Elements           Molality       Moles

	C                 1.227e-04   1.227e-04
	Ca                1.227e-04   1.227e-04

----------------------------Description of solution----------------------------

                                       pH  =   9.910      Charge balance
                                       pe  =  -3.597      Adjusted to redox equilibrium
       Specific Conductance (uS/cm, 25 oC) = 37
                          Density (g/cm3)  =   0.99709
                        Activity of water  =   1.000
                           Ionic strength  =   3.848e-04
                       Mass of water (kg)  =   1.000e+00
                 Total alkalinity (eq/kg)  =   2.454e-04
                       Total CO2 (mol/kg)  =   1.227e-04
                      Temperature (deg C)  =  25.00
                  Electrical balance (eq)  =  -1.082e-10
 Percent error, 100*(Cat-|An|)/(Cat+|An|)  =  -0.00
                               Iterations  =  16
                                  Total H  = 1.110124e+02
                                  Total O  = 5.550658e+01

----------------------------Distribution of species----------------------------

                                                   Log       Log         Log 
   Species                 Molality    Activity  Molality  Activity     Gamma

   OH-                    8.316e-05   8.131e-05    -4.080    -4.090    -0.010
   H+                     1.258e-10   1.231e-10    -9.900    -9.910    -0.009
   H2O                    5.551e+01   1.000e+00     1.744    -0.000     0.000
C(-4)            1.746e-34
   CH4                    1.746e-34   1.747e-34   -33.758   -33.758     0.000
C(4)             1.227e-04
   HCO3-                  8.315e-05   8.132e-05    -4.080    -4.090    -0.010
   CO3-2                  3.386e-05   3.098e-05    -4.470    -4.509    -0.039
   CaCO3                  5.564e-06   5.565e-06    -5.255    -5.255     0.000
   CaHCO3+                1.134e-07   1.109e-07    -6.945    -6.955    -0.010
   CO2                    2.251e-08   2.251e-08    -7.648    -7.648     0.000
Ca               1.227e-04
   Ca+2                   1.169e-04   1.069e-04    -3.932    -3.971    -0.039
   CaCO3                  5.564e-06   5.565e-06    -5.255    -5.255     0.000
   CaOH+                  1.474e-07   1.441e-07    -6.831    -6.841    -0.010
   CaHCO3+                1.134e-07   1.109e-07    -6.945    -6.955    -0.010
H(0)             3.356e-16
   H2                     1.678e-16   1.678e-16   -15.775   -15.775     0.000
O(0)             0.000e+00
   O2                     0.000e+00   0.000e+00   -60.830   -60.830     0.000

------------------------------Saturation indices-------------------------------

	Phase               SI   log IAP   log K(298 K,   1 atm)

	Aragonite        -0.14     -8.48   -8.34  CaCO3
	Calcite          -0.00     -8.48   -8.48  CaCO3
	CH4(g)          -30.91    -33.76   -2.84  CH4
	CO2(g)           -6.18     -7.65   -1.47  CO2
	H2(g)           -12.67    -15.78   -3.10  H2
	H2O(g)           -1.51     -0.00    1.51  H2O
	O2(g)           -57.94    -60.83   -2.89  O2


Reaction step 2.

Using solution 1.	
Using pure phase assemblage 1.	
Using pressure 1.	

-------------------------------Phase assemblage--------------------------------

                                                      Moles in assemblage
Phase               SI  log IAP  log K(T, P)   Initial       Final       Delta

Calcite          -0.00    -8.43     -8.43    1.000e+01   1.000e+01  -1.284e-04

-----------------------------Solution composition------------------------------

	Elements           Molality       Moles

	C                 1.284e-04   1.284e-04
	Ca                1.284e-04   1.284e-04

----------------------------Description of solution----------------------------

                                       pH  =   9.904      Charge balance
                                       pe  =  -3.601      Adjusted to redox equilibrium
       Specific Conductance (uS/cm, 25 oC) = 39
                          Density (g/cm3)  =   0.99951
                        Activity of water  =   1.000
                           Ionic strength  =   4.048e-04
                       Mass of water (kg)  =   1.000e+00
                 Total alkalinity (eq/kg)  =   2.568e-04
                       Total CO2 (mol/kg)  =   1.284e-04
                      Temperature (deg C)  =  25.00
                           Pressure (atm)  = 53.58
                  Electrical balance (eq)  =  -1.082e-10
 Percent error, 100*(Cat-|An|)/(Cat+|An|)  =  -0.00
                               Iterations  =  16
                                  Total H  = 1.110124e+02
                                  Total O  = 5.550660e+01

----------------------------Distribution of species----------------------------

                                                   Log       Log         Log 
   Species                 Molality    Activity  Molality  Activity     Gamma

   OH-                    8.597e-05   8.401e-05    -4.066    -4.076    -0.010
   H+                     1.275e-10   1.247e-10    -9.894    -9.904    -0.010
   H2O                    5.551e+01   1.000e+00     1.744    -0.000     0.000
C(-4)            1.901e-34
   CH4                    1.901e-34   1.901e-34   -33.721   -33.721     0.000
C(4)             1.284e-04
   HCO3-                  8.595e-05   8.401e-05    -4.066    -4.076    -0.010
   CO3-2                  3.676e-05   3.356e-05    -4.435    -4.474    -0.040
   CaCO3                  5.527e-06   5.528e-06    -5.257    -5.257     0.000
   CaHCO3+                1.303e-07   1.274e-07    -6.885    -6.895    -0.010
   CO2                    2.245e-08   2.245e-08    -7.649    -7.649     0.000
Ca               1.284e-04
   Ca+2                   1.226e-04   1.119e-04    -3.912    -3.951    -0.040
   CaCO3                  5.527e-06   5.528e-06    -5.257    -5.257     0.000
   CaOH+                  1.524e-07   1.489e-07    -6.817    -6.827    -0.010
   CaHCO3+                1.303e-07   1.274e-07    -6.885    -6.895    -0.010
H(0)             3.358e-16
   H2                     1.679e-16   1.679e-16   -15.775   -15.775     0.000
O(0)             0.000e+00
   O2                     0.000e+00   0.000e+00   -60.867   -60.867     0.000

------------------------------Saturation indices-------------------------------

	Phase               SI   log IAP   log K(298 K,  54 atm)

	Aragonite        -0.14*    -8.43   -8.28  CaCO3	 Delta_V -55.45 cm3/mol
	Calcite           0.00*    -8.43   -8.43  CaCO3	 Delta_V -58.31 cm3/mol
	CH4(g)          -30.93*   -33.72   -2.79  CH4	 Delta_V -57.82 cm3/mol
	CO2(g)           -6.20*    -7.65   -1.45  CO2	 Delta_V -21.77 cm3/mol
	H2(g)           -12.67    -15.77   -3.10  H2
	H2O(g)           -1.51     -0.00    1.51  H2O
	O2(g)           -57.94*   -60.87   -2.93  O2	 Delta_V  36.05 cm3/mol
	                      *  with Delta_V * (P - 1) / 2.3RT.

Reaction step 3.

Using solution 1.	
Using pure phase assemblage 1.	
Using pressure 1.	

-------------------------------Phase assemblage--------------------------------

                                                      Moles in assemblage
Phase               SI  log IAP  log K(T, P)   Initial       Final       Delta

Calcite          -0.00    -8.37     -8.37    1.000e+01   1.000e+01  -1.344e-04

-----------------------------Solution composition------------------------------

	Elements           Molality       Moles

	C                 1.344e-04   1.344e-04
	Ca                1.344e-04   1.344e-04

----------------------------Description of solution----------------------------

                                       pH  =   9.899      Charge balance
                                       pe  =  -3.604      Adjusted to redox equilibrium
       Specific Conductance (uS/cm, 25 oC) = 41
                          Density (g/cm3)  =   1.00193
                        Activity of water  =   1.000
                           Ionic strength  =   4.260e-04
                       Mass of water (kg)  =   1.000e+00
                 Total alkalinity (eq/kg)  =   2.688e-04
                       Total CO2 (mol/kg)  =   1.344e-04
                      Temperature (deg C)  =  25.00
                           Pressure (atm)  = 106.16
                  Electrical balance (eq)  =  -1.082e-10
 Percent error, 100*(Cat-|An|)/(Cat+|An|)  =  -0.00
                               Iterations  =  16
                                  Total H  = 1.110124e+02
                                  Total O  = 5.550662e+01

----------------------------Distribution of species----------------------------

                                                   Log       Log         Log 
   Species                 Molality    Activity  Molality  Activity     Gamma

   OH-                    8.886e-05   8.678e-05    -4.051    -4.062    -0.010
   H+                     1.292e-10   1.263e-10    -9.889    -9.899    -0.010
   H2O                    5.551e+01   1.000e+00     1.744    -0.000     0.000
C(-4)            2.055e-34
   CH4                    2.055e-34   2.055e-34   -33.687   -33.687     0.000
C(4)             1.344e-04
   HCO3-                  8.882e-05   8.677e-05    -4.051    -4.062    -0.010
   CO3-2                  3.990e-05   3.634e-05    -4.399    -4.440    -0.041
   CaCO3                  5.491e-06   5.491e-06    -5.260    -5.260     0.000
   CaHCO3+                1.497e-07   1.463e-07    -6.825    -6.835    -0.010
   CO2                    2.239e-08   2.239e-08    -7.650    -7.650     0.000
Ca               1.344e-04
   Ca+2                   1.286e-04   1.171e-04    -3.891    -3.931    -0.041
   CaCO3                  5.491e-06   5.491e-06    -5.260    -5.260     0.000
   CaOH+                  1.575e-07   1.539e-07    -6.803    -6.813    -0.010
   CaHCO3+                1.497e-07   1.463e-07    -6.825    -6.835    -0.010
H(0)             3.354e-16
   H2                     1.677e-16   1.677e-16   -15.775   -15.775     0.000
O(0)             0.000e+00
   O2                     0.000e+00   0.000e+00   -60.902   -60.902     0.000

------------------------------Saturation indices-------------------------------

	Phase               SI   log IAP   log K(298 K, 106 atm)

	Aragonite        -0.14*    -8.37   -8.23  CaCO3	 Delta_V -55.45 cm3/mol
	Calcite           0.00*    -8.37   -8.37  CaCO3	 Delta_V -58.31 cm3/mol
	CH4(g)          -30.95*   -33.69   -2.74  CH4	 Delta_V -57.69 cm3/mol
	CO2(g)           -6.22*    -7.65   -1.43  CO2	 Delta_V -21.72 cm3/mol
	H2(g)           -12.67    -15.78   -3.10  H2
	H2O(g)           -1.51     -0.00    1.51  H2O
	O2(g)           -57.94*   -60.90   -2.96  O2	 Delta_V  35.96 cm3/mol
	                      *  with Delta_V * (P - 1) / 2.3RT.

Reaction step 4.

Using solution 1.	
Using pure phase assemblage 1.	
Using pressure 1.	

-------------------------------Phase assemblage--------------------------------

                                                      Moles in assemblage
Phase               SI  log IAP  log K(T, P)   Initial       Final       Delta

Calcite          -0.00    -8.32     -8.32    1.000e+01   1.000e+01  -1.407e-04

-----------------------------Solution composition------------------------------

	Elements           Molality       Moles

	C                 1.407e-04   1.407e-04
	Ca                1.407e-04   1.407e-04

----------------------------Description of solution----------------------------

                                       pH  =   9.893      Charge balance
                                       pe  =  -3.608      Adjusted to redox equilibrium
       Specific Conductance (uS/cm, 25 oC) = 43
                          Density (g/cm3)  =   1.00435
                        Activity of water  =   1.000
                           Ionic strength  =   4.484e-04
                       Mass of water (kg)  =   1.000e+00
                 Total alkalinity (eq/kg)  =   2.814e-04
                       Total CO2 (mol/kg)  =   1.407e-04
                      Temperature (deg C)  =  25.00
                           Pressure (atm)  = 158.74
                  Electrical balance (eq)  =  -1.082e-10
 Percent error, 100*(Cat-|An|)/(Cat+|An|)  =  -0.00
                               Iterations  =  16
                                  Total H  = 1.110124e+02
                                  Total O  = 5.550664e+01

----------------------------Distribution of species----------------------------

                                                   Log       Log         Log 
   Species                 Molality    Activity  Molality  Activity     Gamma

   OH-                    9.182e-05   8.962e-05    -4.037    -4.048    -0.011
   H+                     1.310e-10   1.280e-10    -9.883    -9.893    -0.010
   H2O                    5.551e+01   1.000e+00     1.744    -0.000     0.000
C(-4)            2.242e-34
   CH4                    2.242e-34   2.242e-34   -33.649   -33.649     0.000
C(4)             1.407e-04
   HCO3-                  9.177e-05   8.960e-05    -4.037    -4.048    -0.010
   CO3-2                  4.330e-05   3.935e-05    -4.363    -4.405    -0.042
   CaCO3                  5.454e-06   5.455e-06    -5.263    -5.263     0.000
   CaHCO3+                1.720e-07   1.679e-07    -6.764    -6.775    -0.010
   CO2                    2.233e-08   2.233e-08    -7.651    -7.651     0.000
Ca               1.407e-04
   Ca+2                   1.349e-04   1.226e-04    -3.870    -3.912    -0.042
   CaCO3                  5.454e-06   5.455e-06    -5.263    -5.263     0.000
   CaHCO3+                1.720e-07   1.679e-07    -6.764    -6.775    -0.010
   CaOH+                  1.629e-07   1.590e-07    -6.788    -6.799    -0.010
H(0)             3.358e-16
   H2                     1.679e-16   1.679e-16   -15.775   -15.775     0.000
O(0)             0.000e+00
   O2                     0.000e+00   0.000e+00   -60.940   -60.940     0.000

------------------------------Saturation indices-------------------------------

	Phase               SI   log IAP   log K(298 K, 159 atm)

	Aragonite        -0.14*    -8.32   -8.18  CaCO3	 Delta_V -55.45 cm3/mol
	Calcite          -0.00*    -8.32   -8.32  CaCO3	 Delta_V -58.31 cm3/mol
	CH4(g)          -30.97*   -33.65   -2.68  CH4	 Delta_V -57.55 cm3/mol
	CO2(g)           -6.24*    -7.65   -1.41  CO2	 Delta_V -21.68 cm3/mol
	H2(g)           -12.67    -15.77   -3.10  H2
	H2O(g)           -1.51     -0.00    1.51  H2O
	O2(g)           -57.95*   -60.94   -2.99  O2	 Delta_V  35.88 cm3/mol
	                      *  with Delta_V * (P - 1) / 2.3RT.

Reaction step 5.

Using solution 1.	
Using pure phase assemblage 1.	
Using pressure 1.	

-------------------------------Phase assemblage--------------------------------

                                                      Moles in assemblage
Phase               SI  log IAP  log K(T, P)   Initial       Final       Delta

Calcite          -0.00    -8.26     -8.26    1.000e+01   1.000e+01  -1.474e-04

-----------------------------Solution composition------------------------------

	Elements           Molality       Moles

	C                 1.474e-04   1.474e-04
	Ca                1.474e-04   1.474e-04

----------------------------Description of solution----------------------------

                                       pH  =   9.887      Charge balance
                                       pe  =  -3.612      Adjusted to redox equilibrium
       Specific Conductance (uS/cm, 25 oC) = 45
                          Density (g/cm3)  =   1.00676
                        Activity of water  =   1.000
                           Ionic strength  =   4.723e-04
                       Mass of water (kg)  =   1.000e+00
                 Total alkalinity (eq/kg)  =   2.948e-04
                       Total CO2 (mol/kg)  =   1.474e-04
                      Temperature (deg C)  =  25.00
                           Pressure (atm)  = 211.32
                  Electrical balance (eq)  =  -1.082e-10
 Percent error, 100*(Cat-|An|)/(Cat+|An|)  =  -0.00
                               Iterations  =  16
                                  Total H  = 1.110124e+02
                                  Total O  = 5.550666e+01

----------------------------Distribution of species----------------------------

                                                   Log       Log         Log 
   Species                 Molality    Activity  Molality  Activity     Gamma

   OH-                    9.487e-05   9.254e-05    -4.023    -4.034    -0.011
   H+                     1.328e-10   1.296e-10    -9.877    -9.887    -0.010
   H2O                    5.551e+01   1.000e+00     1.744    -0.000     0.000
C(-4)            2.436e-34
   CH4                    2.436e-34   2.437e-34   -33.613   -33.613     0.000
C(4)             1.474e-04
   HCO3-                  9.479e-05   9.249e-05    -4.023    -4.034    -0.011
   CO3-2                  4.699e-05   4.259e-05    -4.328    -4.371    -0.043
   CaCO3                  5.418e-06   5.419e-06    -5.266    -5.266     0.000
   CaHCO3+                1.976e-07   1.928e-07    -6.704    -6.715    -0.011
   CO2                    2.226e-08   2.227e-08    -7.652    -7.652     0.000
Ca               1.474e-04
   Ca+2                   1.416e-04   1.284e-04    -3.849    -3.892    -0.043
   CaCO3                  5.418e-06   5.419e-06    -5.266    -5.266     0.000
   CaHCO3+                1.976e-07   1.928e-07    -6.704    -6.715    -0.011
   CaOH+                  1.685e-07   1.644e-07    -6.773    -6.784    -0.011
H(0)             3.357e-16
   H2                     1.679e-16   1.679e-16   -15.775   -15.775     0.000
O(0)             0.000e+00
   O2                     0.000e+00   0.000e+00   -60.976   -60.976     0.000

------------------------------Saturation indices-------------------------------

	Phase               SI   log IAP   log K(298 K, 211 atm)

	Aragonite        -0.13*    -8.26   -8.13  CaCO3	 Delta_V -55.45 cm3/mol
	Calcite           0.00*    -8.26   -8.26  CaCO3	 Delta_V -58.31 cm3/mol
	CH4(g)          -30.98*   -33.61   -2.63  CH4	 Delta_V -57.42 cm3/mol
	CO2(g)           -6.27*    -7.65   -1.39  CO2	 Delta_V -21.63 cm3/mol
	H2(g)           -12.67    -15.77   -3.10  H2
	H2O(g)           -1.51     -0.00    1.51  H2O
	O2(g)           -57.95*   -60.98   -3.03  O2	 Delta_V  35.79 cm3/mol
	                      *  with Delta_V * (P - 1) / 2.3RT.

Reaction step 6.

Using solution 1.	
Using pure phase assemblage 1.	
Using pressure 1.	

-------------------------------Phase assemblage--------------------------------

                                                      Moles in assemblage
Phase               SI  log IAP  log K(T, P)   Initial       Final       Delta

Calcite          -0.00    -8.21     -8.21    1.000e+01   1.000e+01  -1.545e-04

-----------------------------Solution composition------------------------------

	Elements           Molality       Moles

	C                 1.545e-04   1.545e-04
	Ca                1.545e-04   1.545e-04

----------------------------Description of solution----------------------------

                                       pH  =   9.882      Charge balance
                                       pe  =  -3.616      Adjusted to redox equilibrium
       Specific Conductance (uS/cm, 25 oC) = 47
                          Density (g/cm3)  =   1.00918
                        Activity of water  =   1.000
                           Ionic strength  =   4.975e-04
                       Mass of water (kg)  =   1.000e+00
                 Total alkalinity (eq/kg)  =   3.090e-04
                       Total CO2 (mol/kg)  =   1.545e-04
                      Temperature (deg C)  =  25.00
                           Pressure (atm)  = 263.89
                  Electrical balance (eq)  =  -1.082e-10
 Percent error, 100*(Cat-|An|)/(Cat+|An|)  =  -0.00
                               Iterations  =  16
                                  Total H  = 1.110124e+02
                                  Total O  = 5.550668e+01

----------------------------Distribution of species----------------------------

                                                   Log       Log         Log 
   Species                 Molality    Activity  Molality  Activity     Gamma

   OH-                    9.799e-05   9.553e-05    -4.009    -4.020    -0.011
   H+                     1.346e-10   1.313e-10    -9.871    -9.882    -0.011
   H2O                    5.551e+01   1.000e+00     1.744    -0.000     0.000
C(-4)            2.646e-34
   CH4                    2.646e-34   2.646e-34   -33.577   -33.577     0.000
C(4)             1.545e-04
   HCO3-                  9.790e-05   9.546e-05    -4.009    -4.020    -0.011
   CO3-2                  5.098e-05   4.609e-05    -4.293    -4.336    -0.044
   CaCO3                  5.382e-06   5.383e-06    -5.269    -5.269     0.000
   CaHCO3+                2.270e-07   2.214e-07    -6.644    -6.655    -0.011
   CO2                    2.220e-08   2.220e-08    -7.654    -7.654     0.000
Ca               1.545e-04
   Ca+2                   1.487e-04   1.345e-04    -3.828    -3.871    -0.044
   CaCO3                  5.382e-06   5.383e-06    -5.269    -5.269     0.000
   CaHCO3+                2.270e-07   2.214e-07    -6.644    -6.655    -0.011
   CaOH+                  1.743e-07   1.700e-07    -6.759    -6.770    -0.011
H(0)             3.356e-16
   H2                     1.678e-16   1.678e-16   -15.775   -15.775     0.000
O(0)             0.000e+00
   O2                     0.000e+00   0.000e+00   -61.013   -61.013     0.000

------------------------------Saturation indices-------------------------------

	Phase               SI   log IAP   log K(298 K, 264 atm)

	Aragonite        -0.13*    -8.21   -8.08  CaCO3	 Delta_V -55.45 cm3/mol
	Calcite          -0.00*    -8.21   -8.21  CaCO3	 Delta_V -58.31 cm3/mol
	CH4(g)          -31.00*   -33.58   -2.58  CH4	 Delta_V -57.29 cm3/mol
	CO2(g)           -6.29*    -7.65   -1.37  CO2	 Delta_V -21.59 cm3/mol
	H2(g)           -12.67    -15.78   -3.10  H2
	H2O(g)           -1.51     -0.00    1.51  H2O
	O2(g)           -57.95*   -61.01   -3.06  O2	 Delta_V  35.70 cm3/mol
	                      *  with Delta_V * (P - 1) / 2.3RT.

Reaction step 7.

Using solution 1.	
Using pure phase assemblage 1.	
Using pressure 1.	

-------------------------------Phase assemblage--------------------------------

                                                      Moles in assemblage
Phase               SI  log IAP  log K(T, P)   Initial       Final       Delta

Calcite          -0.00    -8.15     -8.15    1.000e+01   1.000e+01  -1.620e-04

-----------------------------Solution composition------------------------------

	Elements           Molality       Moles

	C                 1.620e-04   1.620e-04
	Ca                1.620e-04   1.620e-04

----------------------------Description of solution----------------------------

                                       pH  =   9.876      Charge balance
                                       pe  =  -3.619      Adjusted to redox equilibrium
       Specific Conductance (uS/cm, 25 oC) = 49
                          Density (g/cm3)  =   1.01160
                        Activity of water  =   1.000
                           Ionic strength  =   5.244e-04
                       Mass of water (kg)  =   1.000e+00
                 Total alkalinity (eq/kg)  =   3.240e-04
                       Total CO2 (mol/kg)  =   1.620e-04
                      Temperature (deg C)  =  25.00
                           Pressure (atm)  = 316.47
                  Electrical balance (eq)  =  -1.082e-10
 Percent error, 100*(Cat-|An|)/(Cat+|An|)  =  -0.00
                               Iterations  =  16
                                  Total H  = 1.110124e+02
                                  Total O  = 5.550670e+01

----------------------------Distribution of species----------------------------

                                                   Log       Log         Log 
   Species                 Molality    Activity  Molality  Activity     Gamma

   OH-                    1.012e-04   9.859e-05    -3.995    -4.006    -0.011
   H+                     1.364e-10   1.330e-10    -9.865    -9.876    -0.011
   H2O                    5.551e+01   1.000e+00     1.744    -0.000     0.000
C(-4)            2.871e-34
   CH4                    2.871e-34   2.872e-34   -33.542   -33.542     0.000
C(4)             1.620e-04
   HCO3-                  1.011e-04   9.850e-05    -3.995    -4.007    -0.011
   CO3-2                  5.529e-05   4.987e-05    -4.257    -4.302    -0.045
   CaCO3                  5.346e-06   5.347e-06    -5.272    -5.272     0.000
   CaHCO3+                2.609e-07   2.542e-07    -6.584    -6.595    -0.011
   CO2                    2.214e-08   2.214e-08    -7.655    -7.655     0.000
Ca               1.620e-04
   Ca+2                   1.562e-04   1.409e-04    -3.806    -3.851    -0.045
   CaCO3                  5.346e-06   5.347e-06    -5.272    -5.272     0.000
   CaHCO3+                2.609e-07   2.542e-07    -6.584    -6.595    -0.011
   CaOH+                  1.804e-07   1.758e-07    -6.744    -6.755    -0.011
H(0)             3.354e-16
   H2                     1.677e-16   1.677e-16   -15.775   -15.775     0.000
O(0)             0.000e+00
   O2                     0.000e+00   0.000e+00   -61.050   -61.050     0.000

------------------------------Saturation indices-------------------------------

	Phase               SI   log IAP   log K(298 K, 316 atm)

	Aragonite        -0.13*    -8.15   -8.03  CaCO3	 Delta_V -55.44 cm3/mol
	Calcite          -0.00*    -8.15   -8.15  CaCO3	 Delta_V -58.30 cm3/mol
	CH4(g)          -31.02*   -33.54   -2.52  CH4	 Delta_V -57.17 cm3/mol
	CO2(g)           -6.31*    -7.65   -1.35  CO2	 Delta_V -21.55 cm3/mol
	H2(g)           -12.67    -15.78   -3.10  H2
	H2O(g)           -1.51     -0.00    1.51  H2O
	O2(g)           -57.96*   -61.05   -3.09  O2	 Delta_V  35.62 cm3/mol
	                      *  with Delta_V * (P - 1) / 2.3RT.

Reaction step 8.

Using solution 1.	
Using pure phase assemblage 1.	
Using pressure 1.	

-------------------------------Phase assemblage--------------------------------

                                                      Moles in assemblage
Phase               SI  log IAP  log K(T, P)   Initial       Final       Delta

Calcite          -0.00    -8.10     -8.10    1.000e+01   1.000e+01  -1.699e-04

-----------------------------Solution composition------------------------------

	Elements           Molality       Moles

	C                 1.699e-04   1.699e-04
	Ca                1.699e-04   1.699e-04

----------------------------Description of solution----------------------------

                                       pH  =   9.870      Charge balance
                                       pe  =  -3.623      Adjusted to redox equilibrium
       Specific Conductance (uS/cm, 25 oC) = 51
                          Density (g/cm3)  =   1.01402
                        Activity of water  =   1.000
                           Ionic strength  =   5.529e-04
                       Mass of water (kg)  =   1.000e+00
                 Total alkalinity (eq/kg)  =   3.399e-04
                       Total CO2 (mol/kg)  =   1.699e-04
                      Temperature (deg C)  =  25.00
                           Pressure (atm)  = 369.05
                  Electrical balance (eq)  =  -1.082e-10
 Percent error, 100*(Cat-|An|)/(Cat+|An|)  =  -0.00
                               Iterations  =  16
                                  Total H  = 1.110124e+02
                                  Total O  = 5.550673e+01

----------------------------Distribution of species----------------------------

                                                   Log       Log         Log 
   Species                 Molality    Activity  Molality  Activity     Gamma

   OH-                    1.045e-04   1.017e-04    -3.981    -3.993    -0.012
   H+                     1.383e-10   1.348e-10    -9.859    -9.870    -0.011
   H2O                    5.551e+01   1.000e+00     1.744    -0.000     0.000
C(-4)            3.130e-34
   CH4                    3.130e-34   3.130e-34   -33.504   -33.504     0.000
C(4)             1.699e-04
   HCO3-                  1.043e-04   1.016e-04    -3.982    -3.993    -0.011
   CO3-2                  5.996e-05   5.394e-05    -4.222    -4.268    -0.046
   CaCO3                  5.311e-06   5.311e-06    -5.275    -5.275     0.000
   CaHCO3+                2.997e-07   2.919e-07    -6.523    -6.535    -0.011
   CO2                    2.208e-08   2.208e-08    -7.656    -7.656     0.000
Ca               1.699e-04
   Ca+2                   1.641e-04   1.476e-04    -3.785    -3.831    -0.046
   CaCO3                  5.311e-06   5.311e-06    -5.275    -5.275     0.000
   CaHCO3+                2.997e-07   2.919e-07    -6.523    -6.535    -0.011
   CaOH+                  1.868e-07   1.818e-07    -6.729    -6.740    -0.012
H(0)             3.356e-16
   H2                     1.678e-16   1.678e-16   -15.775   -15.775     0.000
O(0)             0.000e+00
   O2                     0.000e+00   0.000e+00   -61.088   -61.087     0.000

------------------------------Saturation indices-------------------------------

	Phase               SI   log IAP   log K(298 K, 369 atm)

	Aragonite        -0.13*    -8.10   -7.97  CaCO3	 Delta_V -55.44 cm3/mol
	Calcite          -0.00*    -8.10   -8.10  CaCO3	 Delta_V -58.30 cm3/mol
	CH4(g)          -31.03*   -33.50   -2.47  CH4	 Delta_V -57.04 cm3/mol
	CO2(g)           -6.33*    -7.66   -1.33  CO2	 Delta_V -21.50 cm3/mol
	H2(g)           -12.67    -15.78   -3.10  H2
	H2O(g)           -1.51     -0.00    1.51  H2O
	O2(g)           -57.96*   -61.09   -3.12  O2	 Delta_V  35.53 cm3/mol
	                      *  with Delta_V * (P - 1) / 2.3RT.

Reaction step 9.

Using solution 1.	
Using pure phase assemblage 1.	
Using pressure 1.	

-------------------------------Phase assemblage--------------------------------

                                                      Moles in assemblage
Phase               SI  log IAP  log K(T, P)   Initial       Final       Delta

Calcite          -0.00    -8.04     -8.04    1.000e+01   1.000e+01  -1.783e-04

-----------------------------Solution composition------------------------------

	Elements           Molality       Moles

	C                 1.783e-04   1.783e-04
	Ca                1.783e-04   1.783e-04

----------------------------Description of solution----------------------------

                                       pH  =   9.865      Charge balance
                                       pe  =  -3.627      Adjusted to redox equilibrium
       Specific Conductance (uS/cm, 25 oC) = 54
                          Density (g/cm3)  =   1.01644
                        Activity of water  =   1.000
                           Ionic strength  =   5.831e-04
                       Mass of water (kg)  =   1.000e+00
                 Total alkalinity (eq/kg)  =   3.567e-04
                       Total CO2 (mol/kg)  =   1.783e-04
                      Temperature (deg C)  =  25.00
                           Pressure (atm)  = 421.63
                  Electrical balance (eq)  =  -1.082e-10
 Percent error, 100*(Cat-|An|)/(Cat+|An|)  =  -0.00
                               Iterations  =  16
                                  Total H  = 1.110124e+02
                                  Total O  = 5.550675e+01

----------------------------Distribution of species----------------------------

                                                   Log       Log         Log 
   Species                 Molality    Activity  Molality  Activity     Gamma

   OH-                    1.079e-04   1.050e-04    -3.967    -3.979    -0.012
   H+                     1.402e-10   1.365e-10    -9.853    -9.865    -0.011
   H2O                    5.551e+01   1.000e+00     1.744    -0.000     0.000
C(-4)            3.413e-34
   CH4                    3.413e-34   3.414e-34   -33.467   -33.467     0.000
C(4)             1.783e-04
   HCO3-                  1.077e-04   1.048e-04    -3.968    -3.980    -0.012
   CO3-2                  6.501e-05   5.832e-05    -4.187    -4.234    -0.047
   CaCO3                  5.275e-06   5.276e-06    -5.278    -5.278     0.000
   CaHCO3+                3.444e-07   3.352e-07    -6.463    -6.475    -0.012
   CO2                    2.201e-08   2.202e-08    -7.657    -7.657     0.000
Ca               1.783e-04
   Ca+2                   1.725e-04   1.548e-04    -3.763    -3.810    -0.047
   CaCO3                  5.275e-06   5.276e-06    -5.278    -5.278     0.000
   CaHCO3+                3.444e-07   3.352e-07    -6.463    -6.475    -0.012
   CaOH+                  1.934e-07   1.881e-07    -6.714    -6.726    -0.012
H(0)             3.357e-16
   H2                     1.679e-16   1.679e-16   -15.775   -15.775     0.000
O(0)             0.000e+00
   O2                     0.000e+00   0.000e+00   -61.125   -61.125     0.000

------------------------------Saturation indices-------------------------------

	Phase               SI   log IAP   log K(298 K, 422 atm)

	Aragonite        -0.12*    -8.04   -7.92  CaCO3	 Delta_V -55.44 cm3/mol
	Calcite           0.00*    -8.04   -8.04  CaCO3	 Delta_V -58.30 cm3/mol
	CH4(g)          -31.05*   -33.47   -2.42  CH4	 Delta_V -56.91 cm3/mol
	CO2(g)           -6.35*    -7.66   -1.31  CO2	 Delta_V -21.46 cm3/mol
	H2(g)           -12.67    -15.78   -3.10  H2
	H2O(g)           -1.51     -0.00    1.51  H2O
	O2(g)           -57.97*   -61.13   -3.16  O2	 Delta_V  35.45 cm3/mol
	                      *  with Delta_V * (P - 1) / 2.3RT.

Reaction step 10.

Using solution 1.	
Using pure phase assemblage 1.	
Using pressure 1.	

-------------------------------Phase assemblage--------------------------------

                                                      Moles in assemblage
Phase               SI  log IAP  log K(T, P)   Initial       Final       Delta

Calcite          -0.00    -7.99     -7.99    1.000e+01   1.000e+01  -1.873e-04

-----------------------------Solution composition------------------------------

	Elements           Molality       Moles

	C                 1.873e-04   1.873e-04
	Ca                1.873e-04   1.873e-04

----------------------------Description of solution----------------------------

                                       pH  =   9.859      Charge balance
                                       pe  =  -3.631      Adjusted to redox equilibrium
       Specific Conductance (uS/cm, 25 oC) = 56
                          Density (g/cm3)  =   1.01886
                        Activity of water  =   1.000
                           Ionic strength  =   6.153e-04
                       Mass of water (kg)  =   1.000e+00
                 Total alkalinity (eq/kg)  =   3.745e-04
                       Total CO2 (mol/kg)  =   1.873e-04
                      Temperature (deg C)  =  25.00
                           Pressure (atm)  = 474.21
                  Electrical balance (eq)  =  -1.082e-10
 Percent error, 100*(Cat-|An|)/(Cat+|An|)  =  -0.00
                               Iterations  =  16
                                  Total H  = 1.110124e+02
                                  Total O  = 5.550678e+01

----------------------------Distribution of species----------------------------

                                                   Log       Log         Log 
   Species                 Molality    Activity  Molality  Activity     Gamma

   OH-                    1.114e-04   1.083e-04    -3.953    -3.966    -0.012
   H+                     1.421e-10   1.383e-10    -9.847    -9.859    -0.012
   H2O                    5.551e+01   1.000e+00     1.744    -0.000     0.000
C(-4)            3.722e-34
   CH4                    3.722e-34   3.722e-34   -33.429   -33.429     0.000
C(4)             1.873e-04
   HCO3-                  1.111e-04   1.081e-04    -3.954    -3.966    -0.012
   CO3-2                  7.048e-05   6.304e-05    -4.152    -4.200    -0.048
   CaCO3                  5.240e-06   5.241e-06    -5.281    -5.281     0.000
   CaHCO3+                3.958e-07   3.849e-07    -6.403    -6.415    -0.012
   CO2                    2.195e-08   2.195e-08    -7.659    -7.659     0.000
Ca               1.873e-04
   Ca+2                   1.814e-04   1.623e-04    -3.741    -3.790    -0.048
   CaCO3                  5.240e-06   5.241e-06    -5.281    -5.281     0.000
   CaHCO3+                3.958e-07   3.849e-07    -6.403    -6.415    -0.012
   CaOH+                  2.003e-07   1.947e-07    -6.698    -6.711    -0.012
H(0)             3.358e-16
   H2                     1.679e-16   1.679e-16   -15.775   -15.775     0.000
O(0)             0.000e+00
   O2                     0.000e+00   0.000e+00   -61.163   -61.163     0.000

------------------------------Saturation indices-------------------------------

	Phase               SI   log IAP   log K(298 K, 474 atm)

	Aragonite        -0.12*    -7.99   -7.87  CaCO3	 Delta_V -55.44 cm3/mol
	Calcite          -0.00*    -7.99   -7.99  CaCO3	 Delta_V -58.30 cm3/mol
	CH4(g)          -31.06*   -33.43   -2.37  CH4	 Delta_V -56.78 cm3/mol
	CO2(g)           -6.37*    -7.66   -1.29  CO2	 Delta_V -21.42 cm3/mol
	H2(g)           -12.67    -15.77   -3.10  H2
	H2O(g)           -1.51     -0.00    1.51  H2O
	O2(g)           -57.97*   -61.16   -3.19  O2	 Delta_V  35.37 cm3/mol
	                      *  with Delta_V * (P - 1) / 2.3RT.

Reaction step 11.

Using solution 1.	
Using pure phase assemblage 1.	
Using pressure 1.	

-------------------------------Phase assemblage--------------------------------

                                                      Moles in assemblage
Phase               SI  log IAP  log K(T, P)   Initial       Final       Delta

Calcite          -0.00    -7.94     -7.94    1.000e+01   1.000e+01  -1.967e-04

-----------------------------Solution composition------------------------------

	Elements           Molality       Moles

	C                 1.967e-04   1.967e-04
	Ca                1.967e-04   1.967e-04

----------------------------Description of solution----------------------------

                                       pH  =   9.853      Charge balance
                                       pe  =  -3.634      Adjusted to redox equilibrium
       Specific Conductance (uS/cm, 25 oC) = 59
                          Density (g/cm3)  =   1.02128
                        Activity of water  =   1.000
                           Ionic strength  =   6.495e-04
                       Mass of water (kg)  =   1.000e+00
                 Total alkalinity (eq/kg)  =   3.934e-04
                       Total CO2 (mol/kg)  =   1.967e-04
                      Temperature (deg C)  =  25.00
                           Pressure (atm)  = 526.79
                  Electrical balance (eq)  =  -1.082e-10
 Percent error, 100*(Cat-|An|)/(Cat+|An|)  =  -0.00
                               Iterations  =  16
                                  Total H  = 1.110124e+02
                                  Total O  = 5.550681e+01

----------------------------Distribution of species----------------------------

                                                   Log       Log         Log 
   Species                 Molality    Activity  Molality  Activity     Gamma

   OH-                    1.149e-04   1.116e-04    -3.940    -3.952    -0.013
   H+                     1.441e-10   1.401e-10    -9.841    -9.853    -0.012
   H2O                    5.551e+01   1.000e+00     1.744    -0.000     0.000
C(-4)            4.049e-34
   CH4                    4.049e-34   4.050e-34   -33.393   -33.393     0.000
C(4)             1.967e-04
   HCO3-                  1.146e-04   1.114e-04    -3.941    -3.953    -0.012
   CO3-2                  7.638e-05   6.813e-05    -4.117    -4.167    -0.050
   CaCO3                  5.205e-06   5.206e-06    -5.284    -5.283     0.000
   CaHCO3+                4.548e-07   4.420e-07    -6.342    -6.355    -0.012
   CO2                    2.188e-08   2.189e-08    -7.660    -7.660     0.000
Ca               1.967e-04
   Ca+2                   1.908e-04   1.702e-04    -3.719    -3.769    -0.050
   CaCO3                  5.205e-06   5.206e-06    -5.284    -5.283     0.000
   CaHCO3+                4.548e-07   4.420e-07    -6.342    -6.355    -0.012
   CaOH+                  2.075e-07   2.015e-07    -6.683    -6.696    -0.013
H(0)             3.357e-16
   H2                     1.679e-16   1.679e-16   -15.775   -15.775     0.000
O(0)             0.000e+00
   O2                     0.000e+00   0.000e+00   -61.201   -61.201     0.000

------------------------------Saturation indices-------------------------------

	Phase               SI   log IAP   log K(298 K, 527 atm)

	Aragonite        -0.12*    -7.94   -7.82  CaCO3	 Delta_V -55.43 cm3/mol
	Calcite           0.00*    -7.94   -7.94  CaCO3	 Delta_V -58.29 cm3/mol
	CH4(g)          -31.08*   -33.39   -2.31  CH4	 Delta_V -56.65 cm3/mol
	CO2(g)           -6.39*    -7.66   -1.27  CO2	 Delta_V -21.37 cm3/mol
	H2(g)           -12.67    -15.77   -3.10  H2
	H2O(g)           -1.51     -0.00    1.51  H2O
	O2(g)           -57.98*   -61.20   -3.22  O2	 Delta_V  35.28 cm3/mol
	                      *  with Delta_V * (P - 1) / 2.3RT.

Reaction step 12.

Using solution 1.	
Using pure phase assemblage 1.	
Using pressure 1.	

-------------------------------Phase assemblage--------------------------------

                                                      Moles in assemblage
Phase               SI  log IAP  log K(T, P)   Initial       Final       Delta

Calcite          -0.00    -7.88     -7.88    1.000e+01   1.000e+01  -2.067e-04

-----------------------------Solution composition------------------------------

	Elements           Molality       Moles

	C                 2.067e-04   2.067e-04
	Ca                2.067e-04   2.067e-04

----------------------------Description of solution----------------------------

                                       pH  =   9.848      Charge balance
                                       pe  =  -3.638      Adjusted to redox equilibrium
       Specific Conductance (uS/cm, 25 oC) = 62
                          Density (g/cm3)  =   1.02369
                        Activity of water  =   1.000
                           Ionic strength  =   6.859e-04
                       Mass of water (kg)  =   1.000e+00
                 Total alkalinity (eq/kg)  =   4.134e-04
                       Total CO2 (mol/kg)  =   2.067e-04
                      Temperature (deg C)  =  25.00
                           Pressure (atm)  = 579.37
                  Electrical balance (eq)  =  -1.082e-10
 Percent error, 100*(Cat-|An|)/(Cat+|An|)  =  -0.00
                               Iterations  =  16
                                  Total H  = 1.110124e+02
                                  Total O  = 5.550684e+01

----------------------------Distribution of species----------------------------

                                                   Log       Log         Log 
   Species                 Molality    Activity  Molality  Activity     Gamma

   OH-                    1.186e-04   1.151e-04    -3.926    -3.939    -0.013
   H+                     1.461e-10   1.420e-10    -9.835    -9.848    -0.012
   H2O                    5.551e+01   1.000e+00     1.744    -0.000     0.000
C(-4)            4.384e-34
   CH4                    4.384e-34   4.384e-34   -33.358   -33.358     0.000
C(4)             2.067e-04
   HCO3-                  1.182e-04   1.148e-04    -3.927    -3.940    -0.013
   CO3-2                  8.277e-05   7.360e-05    -4.082    -4.133    -0.051
   CaCO3                  5.171e-06   5.172e-06    -5.286    -5.286     0.000
   CaHCO3+                5.227e-07   5.076e-07    -6.282    -6.294    -0.013
   CO2                    2.182e-08   2.182e-08    -7.661    -7.661     0.000
Ca               2.067e-04
   Ca+2                   2.008e-04   1.785e-04    -3.697    -3.748    -0.051
   CaCO3                  5.171e-06   5.172e-06    -5.286    -5.286     0.000
   CaHCO3+                5.227e-07   5.076e-07    -6.282    -6.294    -0.013
   CaOH+                  2.150e-07   2.087e-07    -6.668    -6.680    -0.013
H(0)             3.352e-16
   H2                     1.676e-16   1.676e-16   -15.776   -15.776     0.000
O(0)             0.000e+00
   O2                     0.000e+00   0.000e+00   -61.237   -61.237     0.000

------------------------------Saturation indices-------------------------------

	Phase               SI   log IAP   log K(298 K, 579 atm)

	Aragonite        -0.11*    -7.88   -7.77  CaCO3	 Delta_V -55.43 cm3/mol
	Calcite          -0.00*    -7.88   -7.88  CaCO3	 Delta_V -58.29 cm3/mol
	CH4(g)          -31.10*   -33.36   -2.26  CH4	 Delta_V -56.53 cm3/mol
	CO2(g)           -6.41*    -7.66   -1.25  CO2	 Delta_V -21.33 cm3/mol
	H2(g)           -12.67    -15.78   -3.10  H2
	H2O(g)           -1.51     -0.00    1.51  H2O
	O2(g)           -57.98*   -61.24   -3.25  O2	 Delta_V  35.20 cm3/mol
	                      *  with Delta_V * (P - 1) / 2.3RT.

Reaction step 13.

Using solution 1.	
Using pure phase assemblage 1.	
Using pressure 1.	

-------------------------------Phase assemblage--------------------------------

                                                      Moles in assemblage
Phase               SI  log IAP  log K(T, P)   Initial       Final       Delta

Calcite          -0.00    -7.83     -7.83    1.000e+01   1.000e+01  -2.173e-04

-----------------------------Solution composition------------------------------

	Elements           Molality       Moles

	C                 2.173e-04   2.173e-04
	Ca                2.173e-04   2.173e-04

----------------------------Description of solution----------------------------

                                       pH  =   9.842      Charge balance
                                       pe  =  -3.642      Adjusted to redox equilibrium
       Specific Conductance (uS/cm, 25 oC) = 65
                          Density (g/cm3)  =   1.02611
                        Activity of water  =   1.000
                           Ionic strength  =   7.246e-04
                       Mass of water (kg)  =   1.000e+00
                 Total alkalinity (eq/kg)  =   4.347e-04
                       Total CO2 (mol/kg)  =   2.173e-04
                      Temperature (deg C)  =  25.00
                           Pressure (atm)  = 631.95
                  Electrical balance (eq)  =  -1.082e-10
 Percent error, 100*(Cat-|An|)/(Cat+|An|)  =  -0.00
                               Iterations  =  16
                                  Total H  = 1.110124e+02
                                  Total O  = 5.550687e+01

----------------------------Distribution of species----------------------------

                                                   Log       Log         Log 
   Species                 Molality    Activity  Molality  Activity     Gamma

   OH-                    1.223e-04   1.186e-04    -3.912    -3.926    -0.013
   H+                     1.481e-10   1.439e-10    -9.829    -9.842    -0.013
   H2O                    5.551e+01   1.000e+00     1.744    -0.000     0.000
C(-4)            4.816e-34
   CH4                    4.816e-34   4.817e-34   -33.317   -33.317     0.000
C(4)             2.173e-04
   HCO3-                  1.219e-04   1.183e-04    -3.914    -3.927    -0.013
   CO3-2                  8.968e-05   7.949e-05    -4.047    -4.100    -0.052
   CaCO3                  5.136e-06   5.137e-06    -5.289    -5.289     0.000
   CaHCO3+                6.007e-07   5.829e-07    -6.221    -6.234    -0.013
   CO2                    2.175e-08   2.176e-08    -7.662    -7.662     0.000
Ca               2.173e-04
   Ca+2                   2.114e-04   1.874e-04    -3.675    -3.727    -0.052
   CaCO3                  5.136e-06   5.137e-06    -5.289    -5.289     0.000
   CaHCO3+                6.007e-07   5.829e-07    -6.221    -6.234    -0.013
   CaOH+                  2.228e-07   2.161e-07    -6.652    -6.665    -0.013
H(0)             3.359e-16
   H2                     1.679e-16   1.680e-16   -15.775   -15.775     0.000
O(0)             0.000e+00
   O2                     0.000e+00   0.000e+00   -61.277   -61.277     0.000

------------------------------Saturation indices-------------------------------

	Phase               SI   log IAP   log K(298 K, 632 atm)

	Aragonite        -0.11*    -7.83   -7.72  CaCO3	 Delta_V -55.43 cm3/mol
	Calcite          -0.00*    -7.83   -7.83  CaCO3	 Delta_V -58.29 cm3/mol
	CH4(g)          -31.11*   -33.32   -2.21  CH4	 Delta_V -56.40 cm3/mol
	CO2(g)           -6.43*    -7.66   -1.23  CO2	 Delta_V -21.29 cm3/mol
	H2(g)           -12.67    -15.77   -3.10  H2
	H2O(g)           -1.51     -0.00    1.51  H2O
	O2(g)           -57.99*   -61.28   -3.29  O2	 Delta_V  35.12 cm3/mol
	                      *  with Delta_V * (P - 1) / 2.3RT.

Reaction step 14.

Using solution 1.	
Using pure phase assemblage 1.	
Using pressure 1.	

-------------------------------Phase assemblage--------------------------------

                                                      Moles in assemblage
Phase               SI  log IAP  log K(T, P)   Initial       Final       Delta

Calcite          -0.00    -7.77     -7.77    1.000e+01   1.000e+01  -2.286e-04

-----------------------------Solution composition------------------------------

	Elements           Molality       Moles

	C                 2.286e-04   2.286e-04
	Ca                2.286e-04   2.286e-04

----------------------------Description of solution----------------------------

                                       pH  =   9.836      Charge balance
                                       pe  =  -3.645      Adjusted to redox equilibrium
       Specific Conductance (uS/cm, 25 oC) = 68
                          Density (g/cm3)  =   1.02853
                        Activity of water  =   1.000
                           Ionic strength  =   7.659e-04
                       Mass of water (kg)  =   1.000e+00
                 Total alkalinity (eq/kg)  =   4.572e-04
                       Total CO2 (mol/kg)  =   2.286e-04
                      Temperature (deg C)  =  25.00
                           Pressure (atm)  = 684.53
                  Electrical balance (eq)  =  -1.082e-10
 Percent error, 100*(Cat-|An|)/(Cat+|An|)  =  -0.00
                               Iterations  =  16
                                  Total H  = 1.110124e+02
                                  Total O  = 5.550690e+01

----------------------------Distribution of species----------------------------

                                                   Log       Log         Log 
   Species                 Molality    Activity  Molality  Activity     Gamma

   OH-                    1.262e-04   1.223e-04    -3.899    -3.913    -0.014
   H+                     1.502e-10   1.458e-10    -9.823    -9.836    -0.013
   H2O                    5.551e+01   1.000e+00     1.744    -0.000     0.000
C(-4)            5.247e-34
   CH4                    5.247e-34   5.247e-34   -33.280   -33.280     0.000
C(4)             2.286e-04
   HCO3-                  1.257e-04   1.218e-04    -3.901    -3.914    -0.013
   CO3-2                  9.714e-05   8.583e-05    -4.013    -4.066    -0.054
   CaCO3                  5.102e-06   5.103e-06    -5.292    -5.292     0.000
   CaHCO3+                6.904e-07   6.694e-07    -6.161    -6.174    -0.013
   CO2                    2.169e-08   2.169e-08    -7.664    -7.664     0.000
Ca               2.286e-04
   Ca+2                   2.226e-04   1.967e-04    -3.652    -3.706    -0.054
   CaCO3                  5.102e-06   5.103e-06    -5.292    -5.292     0.000
   CaHCO3+                6.904e-07   6.694e-07    -6.161    -6.174    -0.013
   CaOH+                  2.310e-07   2.239e-07    -6.636    -6.650    -0.014
H(0)             3.358e-16
   H2                     1.679e-16   1.679e-16   -15.775   -15.775     0.000
O(0)             0.000e+00
   O2                     0.000e+00   0.000e+00   -61.315   -61.315     0.000

------------------------------Saturation indices-------------------------------

	Phase               SI   log IAP   log K(298 K, 685 atm)

	Aragonite        -0.11*    -7.77   -7.66  CaCO3	 Delta_V -55.43 cm3/mol
	Calcite           0.00*    -7.77   -7.77  CaCO3	 Delta_V -58.29 cm3/mol
	CH4(g)          -31.12*   -33.28   -2.16  CH4	 Delta_V -56.28 cm3/mol
	CO2(g)           -6.45*    -7.66   -1.21  CO2	 Delta_V -21.24 cm3/mol
	H2(g)           -12.67    -15.77   -3.10  H2
	H2O(g)           -1.51     -0.00    1.51  H2O
	O2(g)           -58.00*   -61.32   -3.32  O2	 Delta_V  35.03 cm3/mol
	                      *  with Delta_V * (P - 1) / 2.3RT.

Reaction step 15.

Using solution 1.	
Using pure phase assemblage 1.	
Using pressure 1.	

-------------------------------Phase assemblage--------------------------------

                                                      Moles in assemblage
Phase               SI  log IAP  log K(T, P)   Initial       Final       Delta

Calcite          -0.00    -7.72     -7.72    1.000e+01   1.000e+01  -2.406e-04

-----------------------------Solution composition------------------------------

	Elements           Molality       Moles

	C                 2.406e-04   2.406e-04
	Ca                2.406e-04   2.406e-04

----------------------------Description of solution----------------------------

                                       pH  =   9.831      Charge balance
                                       pe  =  -3.649      Adjusted to redox equilibrium
       Specific Conductance (uS/cm, 25 oC) = 71
                          Density (g/cm3)  =   1.03095
                        Activity of water  =   1.000
                           Ionic strength  =   8.098e-04
                       Mass of water (kg)  =   1.000e+00
                 Total alkalinity (eq/kg)  =   4.812e-04
                       Total CO2 (mol/kg)  =   2.406e-04
                      Temperature (deg C)  =  25.00
                           Pressure (atm)  = 737.11
                  Electrical balance (eq)  =  -1.082e-10
 Percent error, 100*(Cat-|An|)/(Cat+|An|)  =  -0.00
                               Iterations  =  16
                                  Total H  = 1.110124e+02
                                  Total O  = 5.550694e+01

----------------------------Distribution of species----------------------------

                                                   Log       Log         Log 
   Species                 Molality    Activity  Molality  Activity     Gamma

   OH-                    1.301e-04   1.260e-04    -3.886    -3.900    -0.014
   H+                     1.523e-10   1.477e-10    -9.817    -9.831    -0.013
   H2O                    5.551e+01   1.000e+00     1.744    -0.000     0.000
C(-4)            5.732e-34
   CH4                    5.732e-34   5.733e-34   -33.242   -33.242     0.000
C(4)             2.406e-04
   HCO3-                  1.295e-04   1.255e-04    -3.888    -3.901    -0.014
   CO3-2                  1.052e-04   9.265e-05    -3.978    -4.033    -0.055
   CaCO3                  5.068e-06   5.069e-06    -5.295    -5.295     0.000
   CaHCO3+                7.935e-07   7.687e-07    -6.100    -6.114    -0.014
   CO2                    2.162e-08   2.162e-08    -7.665    -7.665     0.000
Ca               2.406e-04
   Ca+2                   2.345e-04   2.065e-04    -3.630    -3.685    -0.055
   CaCO3                  5.068e-06   5.069e-06    -5.295    -5.295     0.000
   CaHCO3+                7.935e-07   7.687e-07    -6.100    -6.114    -0.014
   CaOH+                  2.396e-07   2.320e-07    -6.621    -6.634    -0.014
H(0)             3.360e-16
   H2                     1.680e-16   1.680e-16   -15.775   -15.775     0.000
O(0)             0.000e+00
   O2                     0.000e+00   0.000e+00   -61.354   -61.354     0.000

------------------------------Saturation indices-------------------------------

	Phase               SI   log IAP   log K(298 K, 737 atm)

	Aragonite        -0.11*    -7.72   -7.61  CaCO3	 Delta_V -55.42 cm3/mol
	Calcite          -0.00*    -7.72   -7.72  CaCO3	 Delta_V -58.28 cm3/mol
	CH4(g)          -31.13*   -33.24   -2.11  CH4	 Delta_V -56.15 cm3/mol
	CO2(g)           -6.47*    -7.67   -1.19  CO2	 Delta_V -21.20 cm3/mol
	H2(g)           -12.67    -15.77   -3.10  H2
	H2O(g)           -1.51     -0.00    1.51  H2O
	O2(g)           -58.00*   -61.35   -3.35  O2	 Delta_V  34.95 cm3/mol
	                      *  with Delta_V * (P - 1) / 2.3RT.

Reaction step 16.

Using solution 1.	
Using pure phase assemblage 1.	
Using pressure 1.	

-------------------------------Phase assemblage--------------------------------

                                                      Moles in assemblage
Phase               SI  log IAP  log K(T, P)   Initial       Final       Delta

Calcite          -0.00    -7.66     -7.66    1.000e+01   1.000e+01  -2.533e-04

-----------------------------Solution composition------------------------------

	Elements           Molality       Moles

	C                 2.533e-04   2.533e-04
	Ca                2.533e-04   2.533e-04

----------------------------Description of solution----------------------------

                                       pH  =   9.825      Charge balance
                                       pe  =  -3.653      Adjusted to redox equilibrium
       Specific Conductance (uS/cm, 25 oC) = 75
                          Density (g/cm3)  =   1.03337
                        Activity of water  =   1.000
                           Ionic strength  =   8.565e-04
                       Mass of water (kg)  =   1.000e+00
                 Total alkalinity (eq/kg)  =   5.067e-04
                       Total CO2 (mol/kg)  =   2.533e-04
                      Temperature (deg C)  =  25.00
                           Pressure (atm)  = 789.68
                  Electrical balance (eq)  =  -1.082e-10
 Percent error, 100*(Cat-|An|)/(Cat+|An|)  =  -0.00
                               Iterations  =  16
                                  Total H  = 1.110124e+02
                                  Total O  = 5.550698e+01

----------------------------Distribution of species----------------------------

                                                   Log       Log         Log 
   Species                 Molality    Activity  Molality  Activity     Gamma

   OH-                    1.342e-04   1.298e-04    -3.872    -3.887    -0.014
   H+                     1.545e-10   1.497e-10    -9.811    -9.825    -0.014
   H2O                    5.551e+01   1.000e+00     1.744    -0.000     0.000
C(-4)            6.252e-34
   CH4                    6.252e-34   6.254e-34   -33.204   -33.204     0.000
C(4)             2.533e-04
   HCO3-                  1.335e-04   1.292e-04    -3.875    -3.889    -0.014
   CO3-2                  1.139e-04   9.997e-05    -3.943    -4.000    -0.057
   CaCO3                  5.035e-06   5.036e-06    -5.298    -5.298     0.000
   CaHCO3+                9.121e-07   8.828e-07    -6.040    -6.054    -0.014
   CO2                    2.155e-08   2.155e-08    -7.667    -7.667     0.000
Ca               2.533e-04
   Ca+2                   2.471e-04   2.169e-04    -3.607    -3.664    -0.057
   CaCO3                  5.035e-06   5.036e-06    -5.298    -5.298     0.000
   CaHCO3+                9.121e-07   8.828e-07    -6.040    -6.054    -0.014
   CaOH+                  2.486e-07   2.405e-07    -6.605    -6.619    -0.014
H(0)             3.360e-16
   H2                     1.680e-16   1.680e-16   -15.775   -15.775     0.000
O(0)             0.000e+00
   O2                     0.000e+00   0.000e+00   -61.393   -61.393     0.000

------------------------------Saturation indices-------------------------------

	Phase               SI   log IAP   log K(298 K, 790 atm)

	Aragonite        -0.10*    -7.66   -7.56  CaCO3	 Delta_V -55.42 cm3/mol
	Calcite           0.00*    -7.66   -7.66  CaCO3	 Delta_V -58.28 cm3/mol
	CH4(g)          -31.15*   -33.20   -2.06  CH4	 Delta_V -56.03 cm3/mol
	CO2(g)           -6.49*    -7.67   -1.17  CO2	 Delta_V -21.16 cm3/mol
	H2(g)           -12.67    -15.77   -3.10  H2
	H2O(g)           -1.51     -0.00    1.51  H2O
	O2(g)           -58.01*   -61.39   -3.38  O2	 Delta_V  34.87 cm3/mol
	                      *  with Delta_V * (P - 1) / 2.3RT.

Reaction step 17.

Using solution 1.	
Using pure phase assemblage 1.	
Using pressure 1.	

-------------------------------Phase assemblage--------------------------------

                                                      Moles in assemblage
Phase               SI  log IAP  log K(T, P)   Initial       Final       Delta

Calcite          -0.00    -7.61     -7.61    1.000e+01   1.000e+01  -2.669e-04

-----------------------------Solution composition------------------------------

	Elements           Molality       Moles

	C                 2.669e-04   2.669e-04
	Ca                2.669e-04   2.669e-04

----------------------------Description of solution----------------------------

                                       pH  =   9.819      Charge balance
                                       pe  =  -3.656      Adjusted to redox equilibrium
       Specific Conductance (uS/cm, 25 oC) = 78
                          Density (g/cm3)  =   1.03579
                        Activity of water  =   1.000
                           Ionic strength  =   9.063e-04
                       Mass of water (kg)  =   1.000e+00
                 Total alkalinity (eq/kg)  =   5.337e-04
                       Total CO2 (mol/kg)  =   2.669e-04
                      Temperature (deg C)  =  25.00
                           Pressure (atm)  = 842.26
                  Electrical balance (eq)  =  -1.082e-10
 Percent error, 100*(Cat-|An|)/(Cat+|An|)  =  -0.00
                               Iterations  =  16
                                  Total H  = 1.110124e+02
                                  Total O  = 5.550702e+01

----------------------------Distribution of species----------------------------

                                                   Log       Log         Log 
   Species                 Molality    Activity  Molality  Activity     Gamma

   OH-                    1.383e-04   1.337e-04    -3.859    -3.874    -0.015
   H+                     1.567e-10   1.517e-10    -9.805    -9.819    -0.014
   H2O                    5.551e+01   1.000e+00     1.744    -0.000     0.000
C(-4)            6.825e-34
   CH4                    6.825e-34   6.827e-34   -33.166   -33.166     0.000
C(4)             2.669e-04
   HCO3-                  1.375e-04   1.330e-04    -3.862    -3.876    -0.015
   CO3-2                  1.233e-04   1.078e-04    -3.909    -3.967    -0.058
   CaCO3                  5.001e-06   5.002e-06    -5.301    -5.301     0.000
   CaHCO3+                1.048e-06   1.014e-06    -5.979    -5.994    -0.015
   CO2                    2.148e-08   2.148e-08    -7.668    -7.668     0.000
Ca               2.669e-04
   Ca+2                   2.606e-04   2.278e-04    -3.584    -3.642    -0.058
   CaCO3                  5.001e-06   5.002e-06    -5.301    -5.301     0.000
   CaHCO3+                1.048e-06   1.014e-06    -5.979    -5.994    -0.015
   CaOH+                  2.579e-07   2.493e-07    -6.589    -6.603    -0.015
H(0)             3.360e-16
   H2                     1.680e-16   1.680e-16   -15.775   -15.775     0.000
O(0)             0.000e+00
   O2                     0.000e+00   0.000e+00   -61.431   -61.431     0.000

------------------------------Saturation indices-------------------------------

	Phase               SI   log IAP   log K(298 K, 842 atm)

	Aragonite        -0.10*    -7.61   -7.51  CaCO3	 Delta_V -55.42 cm3/mol
	Calcite          -0.00*    -7.61   -7.61  CaCO3	 Delta_V -58.28 cm3/mol
	CH4(g)          -31.16*   -33.17   -2.01  CH4	 Delta_V -55.90 cm3/mol
	CO2(g)           -6.52*    -7.67   -1.15  CO2	 Delta_V -21.12 cm3/mol
	H2(g)           -12.67    -15.77   -3.10  H2
	H2O(g)           -1.51     -0.00    1.51  H2O
	O2(g)           -58.02*   -61.43   -3.41  O2	 Delta_V  34.79 cm3/mol
	                      *  with Delta_V * (P - 1) / 2.3RT.

Reaction step 18.

Using solution 1.	
Using pure phase assemblage 1.	
Using pressure 1.	

-------------------------------Phase assemblage--------------------------------

                                                      Moles in assemblage
Phase               SI  log IAP  log K(T, P)   Initial       Final       Delta

Calcite          -0.00    -7.56     -7.56    1.000e+01   1.000e+01  -2.813e-04

-----------------------------Solution composition------------------------------

	Elements           Molality       Moles

	C                 2.813e-04   2.813e-04
	Ca                2.813e-04   2.813e-04

----------------------------Description of solution----------------------------

                                       pH  =   9.813      Charge balance
                                       pe  =  -3.659      Adjusted to redox equilibrium
       Specific Conductance (uS/cm, 25 oC) = 82
                          Density (g/cm3)  =   1.03821
                        Activity of water  =   1.000
                           Ionic strength  =   9.594e-04
                       Mass of water (kg)  =   1.000e+00
                 Total alkalinity (eq/kg)  =   5.625e-04
                       Total CO2 (mol/kg)  =   2.813e-04
                      Temperature (deg C)  =  25.00
                           Pressure (atm)  = 894.84
                  Electrical balance (eq)  =  -1.082e-10
 Percent error, 100*(Cat-|An|)/(Cat+|An|)  =  -0.00
                               Iterations  =  16
                                  Total H  = 1.110124e+02
                                  Total O  = 5.550706e+01

----------------------------Distribution of species----------------------------

                                                   Log       Log         Log 
   Species                 Molality    Activity  Molality  Activity     Gamma

   OH-                    1.426e-04   1.377e-04    -3.846    -3.861    -0.015
   H+                     1.589e-10   1.537e-10    -9.799    -9.813    -0.014
   H2O                    5.551e+01   1.000e+00     1.744    -0.000     0.000
C(-4)            7.410e-34
   CH4                    7.410e-34   7.411e-34   -33.130   -33.130     0.000
C(4)             2.813e-04
   HCO3-                  1.416e-04   1.368e-04    -3.849    -3.864    -0.015
   CO3-2                  1.335e-04   1.163e-04    -3.875    -3.934    -0.060
   CaCO3                  4.968e-06   4.969e-06    -5.304    -5.304     0.000
   CaHCO3+                1.205e-06   1.164e-06    -5.919    -5.934    -0.015
   CO2                    2.140e-08   2.141e-08    -7.670    -7.669     0.000
Ca               2.813e-04
   Ca+2                   2.748e-04   2.394e-04    -3.561    -3.621    -0.060
   CaCO3                  4.968e-06   4.969e-06    -5.304    -5.304     0.000
   CaHCO3+                1.205e-06   1.164e-06    -5.919    -5.934    -0.015
   CaOH+                  2.677e-07   2.585e-07    -6.572    -6.587    -0.015
H(0)             3.356e-16
   H2                     1.678e-16   1.678e-16   -15.775   -15.775     0.000
O(0)             0.000e+00
   O2                     0.000e+00   0.000e+00   -61.469   -61.469     0.000

------------------------------Saturation indices-------------------------------

	Phase               SI   log IAP   log K(298 K, 895 atm)

	Aragonite        -0.10*    -7.56   -7.46  CaCO3	 Delta_V -55.41 cm3/mol
	Calcite          -0.00*    -7.56   -7.56  CaCO3	 Delta_V -58.27 cm3/mol
	CH4(g)          -31.17*   -33.13   -1.96  CH4	 Delta_V -55.78 cm3/mol
	CO2(g)           -6.54*    -7.67   -1.13  CO2	 Delta_V -21.08 cm3/mol
	H2(g)           -12.67    -15.78   -3.10  H2
	H2O(g)           -1.51     -0.00    1.51  H2O
	O2(g)           -58.03*   -61.47   -3.44  O2	 Delta_V  34.71 cm3/mol
	                      *  with Delta_V * (P - 1) / 2.3RT.

Reaction step 19.

Using solution 1.	
Using pure phase assemblage 1.	
Using pressure 1.	

-------------------------------Phase assemblage--------------------------------

                                                      Moles in assemblage
Phase               SI  log IAP  log K(T, P)   Initial       Final       Delta

Calcite          -0.00    -7.50     -7.50    1.000e+01   1.000e+01  -2.966e-04

-----------------------------Solution composition------------------------------

	Elements           Molality       Moles

	C                 2.966e-04   2.966e-04
	Ca                2.966e-04   2.966e-04

----------------------------Description of solution----------------------------

                                       pH  =   9.808      Charge balance
                                       pe  =  -3.663      Adjusted to redox equilibrium
       Specific Conductance (uS/cm, 25 oC) = 86
                          Density (g/cm3)  =   1.04062
                        Activity of water  =   1.000
                           Ionic strength  =   1.016e-03
                       Mass of water (kg)  =   1.000e+00
                 Total alkalinity (eq/kg)  =   5.932e-04
                       Total CO2 (mol/kg)  =   2.966e-04
                      Temperature (deg C)  =  25.00
                           Pressure (atm)  = 947.42
                  Electrical balance (eq)  =  -1.082e-10
 Percent error, 100*(Cat-|An|)/(Cat+|An|)  =  -0.00
                               Iterations  =  17
                                  Total H  = 1.110124e+02
                                  Total O  = 5.550711e+01

----------------------------Distribution of species----------------------------

                                                   Log       Log         Log 
   Species                 Molality    Activity  Molality  Activity     Gamma

   OH-                    1.469e-04   1.417e-04    -3.833    -3.849    -0.016
   H+                     1.611e-10   1.557e-10    -9.793    -9.808    -0.015
   H2O                    5.551e+01   1.000e+00     1.744    -0.000     0.000
C(-4)            8.094e-34
   CH4                    8.094e-34   8.096e-34   -33.092   -33.092     0.000
C(4)             2.966e-04
   HCO3-                  1.458e-04   1.407e-04    -3.836    -3.852    -0.015
   CO3-2                  1.445e-04   1.254e-04    -3.840    -3.902    -0.061
   CaCO3                  4.935e-06   4.936e-06    -5.307    -5.307     0.000
   CaHCO3+                1.385e-06   1.337e-06    -5.858    -5.874    -0.015
   CO2                    2.133e-08   2.133e-08    -7.671    -7.671     0.000
Ca               2.966e-04
   Ca+2                   2.900e-04   2.517e-04    -3.538    -3.599    -0.062
   CaCO3                  4.935e-06   4.936e-06    -5.307    -5.307     0.000
   CaHCO3+                1.385e-06   1.337e-06    -5.858    -5.874    -0.015
   CaOH+                  2.780e-07   2.682e-07    -6.556    -6.572    -0.016
H(0)             3.356e-16
   H2                     1.678e-16   1.678e-16   -15.775   -15.775     0.000
O(0)             0.000e+00
   O2                     0.000e+00   0.000e+00   -61.508   -61.508     0.000

------------------------------Saturation indices-------------------------------

	Phase               SI   log IAP   log K(298 K, 947 atm)

	Aragonite        -0.10*    -7.50   -7.41  CaCO3	 Delta_V -55.41 cm3/mol
	Calcite          -0.00*    -7.50   -7.50  CaCO3	 Delta_V -58.27 cm3/mol
	CH4(g)          -31.18*   -33.09   -1.91  CH4	 Delta_V -55.66 cm3/mol
	CO2(g)           -6.56*    -7.67   -1.11  CO2	 Delta_V -21.03 cm3/mol
	H2(g)           -12.67    -15.78   -3.10  H2
	H2O(g)           -1.51     -0.00    1.51  H2O
	O2(g)           -58.03*   -61.51   -3.47  O2	 Delta_V  34.63 cm3/mol
	                      *  with Delta_V * (P - 1) / 2.3RT.

Reaction step 20.

Using solution 1.	
Using pure phase assemblage 1.	
Using pressure 1.	

-------------------------------Phase assemblage--------------------------------

                                                      Moles in assemblage
Phase               SI  log IAP  log K(T, P)   Initial       Final       Delta

Calcite          -0.00    -7.45     -7.45    1.000e+01   1.000e+01  -3.129e-04

-----------------------------Solution composition------------------------------

	Elements           Molality       Moles

	C                 3.129e-04   3.129e-04
	Ca                3.129e-04   3.129e-04

----------------------------Description of solution----------------------------

                                       pH  =   9.802      Charge balance
                                       pe  =  -3.667      Adjusted to redox equilibrium
       Specific Conductance (uS/cm, 25 oC) = 91
                          Density (g/cm3)  =   1.04304
                        Activity of water  =   1.000
                           Ionic strength  =   1.077e-03
                       Mass of water (kg)  =   1.000e+00
                 Total alkalinity (eq/kg)  =   6.258e-04
                       Total CO2 (mol/kg)  =   3.129e-04
                      Temperature (deg C)  =  25.00
                           Pressure (atm)  = 1000.00
                  Electrical balance (eq)  =  -1.079e-10
 Percent error, 100*(Cat-|An|)/(Cat+|An|)  =  -0.00
                               Iterations  =  17
                                  Total H  = 1.110124e+02
                                  Total O  = 5.550716e+01

----------------------------Distribution of species----------------------------

                                                   Log       Log         Log 
   Species                 Molality    Activity  Molality  Activity     Gamma

   OH-                    1.514e-04   1.459e-04    -3.820    -3.836    -0.016
   H+                     1.634e-10   1.578e-10    -9.787    -9.802    -0.015
   H2O                    5.551e+01   1.000e+00     1.744    -0.000     0.000
C(-4)            8.882e-34
   CH4                    8.882e-34   8.884e-34   -33.051   -33.051     0.000
C(4)             3.129e-04
   CO3-2                  1.563e-04   1.351e-04    -3.806    -3.869    -0.063
   HCO3-                  1.501e-04   1.447e-04    -3.824    -3.839    -0.016
   CaCO3                  4.902e-06   4.903e-06    -5.310    -5.310     0.000
   CaHCO3+                1.592e-06   1.535e-06    -5.798    -5.814    -0.016
   CO2                    2.125e-08   2.126e-08    -7.673    -7.673     0.000
Ca               3.129e-04
   Ca+2                   3.061e-04   2.646e-04    -3.514    -3.577    -0.063
   CaCO3                  4.902e-06   4.903e-06    -5.310    -5.310     0.000
   CaHCO3+                1.592e-06   1.535e-06    -5.798    -5.814    -0.016
   CaOH+                  2.887e-07   2.783e-07    -6.540    -6.556    -0.016
H(0)             3.360e-16
   H2                     1.680e-16   1.681e-16   -15.775   -15.775     0.000
O(0)             0.000e+00
   O2                     0.000e+00   0.000e+00   -61.548   -61.548     0.000

------------------------------Saturation indices-------------------------------

	Phase               SI   log IAP   log K(298 K, 1000 atm)

	Aragonite        -0.09*    -7.45   -7.35  CaCO3	 Delta_V -55.41 cm3/mol
	Calcite          -0.00*    -7.45   -7.45  CaCO3	 Delta_V -58.27 cm3/mol
	CH4(g)          -31.19*   -33.05   -1.86  CH4	 Delta_V -55.54 cm3/mol
	CO2(g)           -6.58*    -7.67   -1.10  CO2	 Delta_V -20.99 cm3/mol
	H2(g)           -12.67    -15.77   -3.10  H2
	H2O(g)           -1.51     -0.00    1.51  H2O
	O2(g)           -58.04*   -61.55   -3.50  O2	 Delta_V  34.55 cm3/mol
	                      *  with Delta_V * (P - 1) / 2.3RT.

------------------
End of simulation.
------------------

------------------------------------
Reading input data for simulation 2.
------------------------------------

-----------
End of run.
-----------

