WARNING: Database file from DATABASE keyword is used; command line argument ignored.
   Input file: cdmusic_related
  Output file: cdmusic_related.out
Database file: ../database/wateq4f.dat

------------------
Reading data base.
------------------

	SOLUTION_MASTER_SPECIES
	SOLUTION_SPECIES
	PHASES
	EXCHANGE_MASTER_SPECIES
	EXCHANGE_SPECIES
	SURFACE_MASTER_SPECIES
	SURFACE_SPECIES
	RATES
	END
------------------------------------
Reading input data for simulation 1.
------------------------------------

	DATABASE ../database/wateq4f.dat
	SELECTED_OUTPUT 101
	    file                 cdmusic_related_101.sel
	USER_PUNCH 101
	    headings Mu SC
	    start
	10 PUNCH STR_F$(MU, 20, 12)
	20 PUNCH STR_F$(SC, 20, 10)
	    end
	PHASES
		Fix_H+
		H+ = H+
		log_k 0
	END
------------------
End of simulation.
------------------

------------------------------------
Reading input data for simulation 2.
------------------------------------

	solution_species
		H2O + 0.01e- = H2O-0.01
		log_k -8
	SURFACE_MASTER_SPECIES
	        Goe_uni    Goe_uniOH-0.5
	        Goe_tri    Goe_triO-0.5
	SURFACE_SPECIES
	        Goe_triO-0.5  = Goe_triO-0.5
	             cd_music  0 0 0 0 0
	             log_k 0
	        Goe_triO-0.5 + H+ = Goe_triOH+0.5
	             cd_music  1 0 0 0 0
	             log_k    9.2                   # eq 19  K3,1
	        Goe_triO-0.5 + Na+ = Goe_triONa+0.5
	             cd_music  0 1 0 0 0
	             log_k    -0.6                  # Kc
	        Goe_triO-0.5 + H+ + NO3- = Goe_triOHNO3-0.5
	            cd_music  1 -1 0 0 0 
	            log_k    8.52                   # Ka + KH2
	        Goe_uniOH-0.5 = Goe_uniOH-0.5
	             cd_music  0 0 0 0 0
	             log_k 0
	        Goe_uniOH-0.5 + H+ = Goe_uniOH2+0.5
	             cd_music  1 0 0 0 0
	             log_k    9.2                   # eq 18  K1,2
	        Goe_uniOH-0.5 + Na+ = Goe_uniOHNa+0.5
	             cd_music  0 1 0 0 0
	             log_k    -0.6                  # Kc
	       Goe_uniOH-0.5 + H+ + NO3- = Goe_uniOH2NO3-0.5
	            cd_music  1 -1 0 0 0 
	            log_k    8.52                   # Ka + KH1
	        Goe_uniOH-0.5 + 2H+ + AsO4-3 = Goe_uniOAsO2OH-1.5 + H2O
			 log_k 2.588665918903E+01
	             cd_music  0.3  -1.3 0 0 0
	        2Goe_uniOH-0.5 + 2H+ + AsO4-3 = Goe_uni2O2AsO2-2 + 2H2O
		      log_k 2.938841045897E+01
	             cd_music  0.47  -1.47  0 0 0
	        2Goe_uniOH-0.5 + 3H+ + AsO4-3 = Goe_uni2O2AsOOH- + 2H2O
		      log_k  3.351076873462E+01
	             cd_music  0.58 -0.58 0 0 0
	        Goe_uniOH-0.5 + H3AsO3 = Goe_uniOAs(OH)2-0.5 + H2O
			 log_k  4.910000000000E+00
	             cd_music  0.16  -0.16 0 0 0
	        2Goe_uniOH-0.5 + H3AsO3 = Goe_uni2O2AsOH-1 + 2H2O
			 log_k  7.260000000000E+00
	             cd_music  0.34 -0.34 0 0 0
	        Goe_uniOH-0.5 + H+ + PO4-3 = Goe_uniOPO3-2.5 + H2O
		     log_k     1.083817538392E+01
	             cd_music  -1 -6 0 0.25 5
	        2Goe_uniOH-0.5 + 2H+ + PO4-3 = Goe_uni2O2PO2-2 + 2H2O
	             log_k     3.004552832445E+01
	             cd_music  -2 -4 0 0.5 5
	        2Goe_uniOH-0.5 + 2H+ + PO4-3 + H+ = Goe_uni2O2POOH- + 2H2O
		     log_k     3.637695438297E+01
	             cd_music  -2 -3 0 0.6 5
	SOLUTION 1
		units  mol/kgw
		temp   25.0
		pH      1.95000
		pe      4.00000
		water   1.00000
		As(3)   1.e-4
		As(5)   1.e-4
		Cl      .001   charge
		Fe(3)   1.00000e-001
		Na      .001
	EQUILIBRIUM_PHASES 1
		Goethite	0.0	0.01
	SAVE solution 1
	END
-------------------------------------------
Beginning of initial solution calculations.
-------------------------------------------

Initial solution 1.	

-----------------------------Solution composition------------------------------

	Elements           Molality       Moles

	As(3)             1.000e-04   1.000e-04
	As(5)             1.000e-04   1.000e-04
	Cl                2.921e-01   2.921e-01  Charge balance
	Fe(3)             1.000e-01   1.000e-01
	Na                1.000e-03   1.000e-03

----------------------------Description of solution----------------------------

                                       pH  =   1.950    
                                       pe  =   4.000    
                        Activity of water  =   0.994
                 Ionic strength (mol/kgw)  =   3.999e-01
                       Mass of water (kg)  =   1.000e+00
                 Total alkalinity (eq/kg)  =  -1.912e-01
                         Temperature (°C)  =  25.00
                  Electrical balance (eq)  =   2.824e-12
 Percent error, 100*(Cat-|An|)/(Cat+|An|)  =   0.00
                               Iterations  =  15
                                  Total H  = 1.110510e+02
                                  Total O  = 5.553035e+01

---------------------------------Redox couples---------------------------------

	Redox couple             pe  Eh (volts)

	As(3)/As(5)          7.6166      0.4506

----------------------------Distribution of species----------------------------

                                               Log       Log       Log    mole V
   Species          Molality    Activity  Molality  Activity     Gamma   cm³/mol

   H+              1.453e-02   1.122e-02    -1.838    -1.950    -0.112      0.00
   H2O-0.01        9.068e-09   9.068e-09    -8.042    -8.042    -0.000     (0)  
   OH-             1.364e-12   8.871e-13   -11.865   -12.052    -0.187     (0)  
   H2O             5.551e+01   9.943e-01     1.744    -0.002     0.000     18.07
As(3)         1.000e-04
   H3AsO3          9.917e-05   1.087e-04    -4.004    -3.964     0.040     (0)  
   H4AsO3+         8.275e-07   6.045e-07    -6.082    -6.219    -0.136     (0)  
   H2AsO3-         9.392e-12   6.861e-12   -11.027   -11.164    -0.136     (0)  
   HAsO3-2         4.285e-24   1.220e-24   -23.368   -23.914    -0.546     (0)  
   AsO3-3          3.664e-37   2.170e-38   -36.436   -37.664    -1.228     (0)  
As(5)         1.000e-04
   H3AsO4          5.986e-05   6.564e-05    -4.223    -4.183     0.040     (0)  
   H2AsO4-         4.014e-05   2.932e-05    -4.396    -4.533    -0.136     (0)  
   HAsO4-2         6.349e-10   1.808e-10    -9.197    -9.743    -0.546     (0)  
   AsO4-3          6.091e-19   3.607e-20   -18.215   -19.443    -1.228     (0)  
Cl            2.921e-01
   Cl-             2.282e-01   1.505e-01    -0.642    -0.822    -0.181     (0)  
   FeCl+2          4.451e-02   1.037e-02    -1.352    -1.984    -0.633     (0)  
   FeCl2+          9.540e-03   6.969e-03    -2.020    -2.157    -0.136     (0)  
   FeCl3           9.566e-05   1.049e-04    -4.019    -3.979     0.040     (0)  
Fe(3)         1.000e-01
   FeCl+2          4.451e-02   1.037e-02    -1.352    -1.984    -0.633     (0)  
   Fe+3            2.342e-02   2.281e-03    -1.630    -2.642    -1.012     (0)  
   FeCl2+          9.540e-03   6.969e-03    -2.020    -2.157    -0.136     (0)  
   Fe2(OH)2+4      6.974e-03   4.584e-05    -2.156    -4.339    -2.182     (0)  
   FeOH+2          5.603e-03   1.305e-03    -2.252    -2.884    -0.633     (0)  
   Fe3(OH)4+5      9.423e-04   3.667e-07    -3.026    -6.436    -3.410     (0)  
   FeCl3           9.566e-05   1.049e-04    -4.019    -3.979     0.040     (0)  
   Fe(OH)2+        5.434e-05   3.829e-05    -4.265    -4.417    -0.152     (0)  
   Fe(OH)3         3.987e-10   4.372e-10    -9.399    -9.359     0.040     (0)  
   Fe(OH)4-        5.014e-17   3.533e-17   -16.300   -16.452    -0.152     (0)  
H(0)          1.626e-15
   H2              8.129e-16   8.913e-16   -15.090   -15.050     0.040     (0)  
Na            1.000e-03
   Na+             1.000e-03   7.142e-04    -3.000    -3.146    -0.146     (0)  
O(0)          0.000e+00
   O2              0.000e+00   0.000e+00   -62.325   -62.285     0.040     (0)  

------------------------------Saturation indices-------------------------------

  Phase               SI** log IAP   log K(298 K,   1 atm)

  Arsenolite       -6.54     -7.92   -1.38  As2O3
  As2O5(cr)       -16.59     -8.36    8.23  As2O5
  As_native        -9.27    -21.81  -12.53  As
  Claudetite       -6.58     -7.92   -1.34  As2O3
  Fe(OH)2.7Cl.3     5.41      2.37   -3.04  Fe(OH)2.7Cl0.3
  Fe(OH)3(a)       -1.69      3.20    4.89  Fe(OH)3
  Fix_H+           -1.95     -1.95    0.00  H+
  Goethite          4.20      3.20   -1.00  FeOOH
  H2(g)           -11.90    -15.05   -3.15  H2
  H2O(g)           -1.51     -0.00    1.51  H2O
  Halite           -5.55     -3.97    1.58  NaCl
  Hematite         10.42      6.41   -4.01  Fe2O3
  Maghemite         0.02      6.41    6.39  Fe2O3
  O2(g)           -59.39    -62.28   -2.89  O2
  Scorodite        -1.84    -22.09  -20.25  FeAsO4:2H2O

**For a gas, SI = log10(fugacity). Fugacity = pressure * phi / 1 atm.
  For ideal gases, phi = 1.

-----------------------------------------
Beginning of batch-reaction calculations.
-----------------------------------------

Reaction step 1.

Using solution 1.	
Using pure phase assemblage 1.	

-------------------------------Phase assemblage--------------------------------

                                                      Moles in assemblage
Phase               SI  log IAP  log K(T, P)   Initial       Final       Delta

Goethite          0.00    -1.00     -1.00    1.000e-02   8.844e-02   7.844e-02

-----------------------------Solution composition------------------------------

	Elements           Molality       Moles

	As                2.005e-04   2.000e-04
	Cl                2.928e-01   2.921e-01
	Fe                2.161e-02   2.156e-02
	Na                1.002e-03   1.000e-03

----------------------------Description of solution----------------------------

                                       pH  =   0.750      Charge balance
                                       pe  =  14.056      Adjusted to redox equilibrium
                        Activity of water  =   0.991
                 Ionic strength (mol/kgw)  =   3.013e-01
                       Mass of water (kg)  =   9.976e-01
                 Total alkalinity (eq/kg)  =  -2.702e-01
                         Temperature (°C)  =  25.00
                  Electrical balance (eq)  =   1.667e-10
 Percent error, 100*(Cat-|An|)/(Cat+|An|)  =   0.00
                               Iterations  =  14
                                  Total H  = 1.109725e+02
                                  Total O  = 5.537347e+01

----------------------------Distribution of species----------------------------

                                               Log       Log       Log    mole V
   Species          Molality    Activity  Molality  Activity     Gamma   cm³/mol

   H+              2.272e-01   1.777e-01    -0.644    -0.750    -0.107      0.00
   H2O-0.01        7.171e-09   7.171e-09    -8.144    -8.144    -0.000     (0)  
   OH-             8.289e-14   5.583e-14   -13.081   -13.253    -0.172     (0)  
   H2O             5.551e+01   9.911e-01     1.744    -0.004     0.000     18.07
As(3)         1.199e-14
   H3AsO3          1.062e-14   1.139e-14   -13.974   -13.944     0.030     (0)  
   H4AsO3+         1.367e-15   1.002e-15   -14.864   -14.999    -0.135     (0)  
   H2AsO3-         6.184e-23   4.536e-23   -22.209   -22.343    -0.135     (0)  
   HAsO3-2         1.760e-36   5.092e-37   -35.754   -36.293    -0.539     (0)  
   AsO3-3          0.000e+00   0.000e+00   -50.031   -51.243    -1.212     (0)  
As(5)         2.005e-04
   H3AsO4          1.925e-04   2.064e-04    -3.715    -3.685     0.030     (0)  
   H2AsO4-         7.936e-06   5.820e-06    -5.100    -5.235    -0.135     (0)  
   HAsO4-2         7.831e-12   2.266e-12   -11.106   -11.645    -0.539     (0)  
   AsO4-3          4.648e-22   2.854e-23   -21.333   -22.544    -1.212     (0)  
Cl            2.928e-01
   Cl-             2.729e-01   1.857e-01    -0.564    -0.731    -0.167     (0)  
   FeCl+2          1.244e-02   3.205e-03    -1.905    -2.494    -0.589     (0)  
   FeCl2+          3.626e-03   2.659e-03    -2.441    -2.575    -0.135     (0)  
   FeCl3           4.608e-05   4.939e-05    -4.336    -4.306     0.030     (0)  
   FeCl+           1.893e-05   1.349e-05    -4.723    -4.870    -0.147     (0)  
Fe(2)         2.005e-04
   Fe+2            1.815e-04   5.261e-05    -3.741    -4.279    -0.538     (0)  
   FeCl+           1.893e-05   1.349e-05    -4.723    -4.870    -0.147     (0)  
   FeOH+           1.302e-13   9.279e-14   -12.885   -13.032    -0.147     (0)  
   Fe(OH)2         4.109e-24   4.405e-24   -23.386   -23.356     0.030     (0)  
   Fe(OH)3-        1.281e-33   9.127e-34   -32.892   -33.040    -0.147     (0)  
Fe(3)         2.141e-02
   FeCl+2          1.244e-02   3.205e-03    -1.905    -2.494    -0.589     (0)  
   Fe+3            5.219e-03   5.714e-04    -2.282    -3.243    -0.961     (0)  
   FeCl2+          3.626e-03   2.659e-03    -2.441    -2.575    -0.135     (0)  
   FeOH+2          7.984e-05   2.057e-05    -4.098    -4.687    -0.589     (0)  
   FeCl3           4.608e-05   4.939e-05    -4.336    -4.306     0.030     (0)  
   Fe2(OH)2+4      1.625e-06   1.139e-08    -5.789    -7.943    -2.154     (0)  
   Fe(OH)2+        5.267e-08   3.799e-08    -7.278    -7.420    -0.142     (0)  
   Fe3(OH)4+5      2.101e-10   9.044e-14    -9.678   -13.044    -3.366     (0)  
   Fe(OH)3         2.547e-14   2.730e-14   -13.594   -13.564     0.030     (0)  
   Fe(OH)4-        1.925e-22   1.388e-22   -21.716   -21.857    -0.142     (0)  
H(0)          3.226e-33
   H2              1.613e-33   1.729e-33   -32.792   -32.762     0.030     (0)  
Na            1.002e-03
   Na+             1.002e-03   7.261e-04    -2.999    -3.139    -0.140     (0)  
O(0)          2.556e-27
   O2              1.278e-27   1.370e-27   -26.894   -26.863     0.030     (0)  

------------------------------Saturation indices-------------------------------

  Phase               SI** log IAP   log K(298 K,   1 atm)

  Arsenolite      -26.50    -27.88   -1.38  As2O3
  As2O5(cr)       -15.59     -7.36    8.23  As2O5
  As_native       -45.82    -58.35  -12.53  As
  Claudetite      -26.54    -27.88   -1.34  As2O3
  Fe(OH)2.7Cl.3     1.59     -1.45   -3.04  Fe(OH)2.7Cl0.3
  Fe(OH)3(a)       -5.89     -1.00    4.89  Fe(OH)3
  Fe3(OH)8        -25.02     -4.79   20.22  Fe3(OH)8
  Fix_H+           -0.75     -0.75    0.00  H+
  Goethite          0.00     -1.00   -1.00  FeOOH
  H2(g)           -29.61    -32.76   -3.15  H2
  H2O(g)           -1.51     -0.00    1.51  H2O
  Halite           -5.45     -3.87    1.58  NaCl
  Hematite          2.01     -2.00   -4.01  Fe2O3
  Maghemite        -8.38     -2.00    6.39  Fe2O3
  Magnetite        -8.52     -4.78    3.74  Fe3O4
  O2(g)           -23.97    -26.86   -2.89  O2
  Scorodite        -5.55    -25.80  -20.25  FeAsO4:2H2O

**For a gas, SI = log10(fugacity). Fugacity = pressure * phi / 1 atm.
  For ideal gases, phi = 1.

------------------
End of simulation.
------------------

------------------------------------
Reading input data for simulation 3.
------------------------------------

	TITLE Initial neutral form, equilibrate with solution
	USE solution 1
	USE equilibrium_phases 1
	SURFACE 1
		cd_music
		Goe_triOH0.5  	Goethite       equi   1.50000e-001  53300
		capacitances           .85   .75
		Goe_uniOHH0.5  	Goethite       equi   2.00000e-001  53300
	END
-----
TITLE
-----

 Initial neutral form, equilibrate with solution

-----------------------------------------
Beginning of batch-reaction calculations.
-----------------------------------------

Reaction step 1.

Using solution 1.	Solution after simulation 2.
Using surface 1.	
Using pure phase assemblage 1.	

-------------------------------Phase assemblage--------------------------------

                                                      Moles in assemblage
Phase               SI  log IAP  log K(T, P)   Initial       Final       Delta

Goethite         -0.00    -1.00     -1.00    1.000e-02   1.011e-02   1.078e-04

------------------------------Surface composition------------------------------

Goe           
	  9.942e-04  Surface charge, plane 0, eq
	 -2.826e-04  Surface charge, plane 1, eq
	  0.000e+00  Surface charge, plane 2, eq
	  7.116e-04  Sum of surface charge, all planes, eq

	  1.781e-01  sigma, plane 0, C/m²
	 -5.061e-02  sigma, plane 1, C/m²
	  0.000e+00  sigma, plane 2, C/m²
	 -1.275e-01  sigma, diffuse layer, C/m²

	  4.553e-01  psi, plane 0, V
	  2.458e-01  psi, plane 1, V
	  7.586e-02  psi, plane 2, V

	  2.012e-08  exp(-F*psi/RT), plane 0
	  6.997e-05  exp(-F*psi/RT), plane 1
	  5.219e-02  exp(-F*psi/RT), plane 2

	  8.500e-01  capacitance 0-1, F/m^2
	  7.500e-01  capacitance 1-2, F/m^2
	  5.330e+04  specific area, m^2/mol Goethite
	  5.387e+02  m^2 for   1.011e-02 moles of Goethite


Goe_tri       
	  1.516e-03  moles	[0.15 mol/(mol Goethite)]
	                                        Mole                     Log
	Species                    Moles    Fraction    Molality    Molality

	Goe_triOH+0.5          1.288e-03       0.850   1.292e-03      -2.889
	Goe_triO-0.5           2.278e-04       0.150   2.283e-04      -3.641
	Goe_triONa+0.5         2.907e-12       0.000   2.914e-12     -11.536

Goe_uni       
	  2.022e-03  moles	[0.2 mol/(mol Goethite)]
	                                        Mole                     Log
	Species                    Moles    Fraction    Molality    Molality

	Goe_uniOH2+0.5         1.380e-03       0.682   1.383e-03      -2.859
	Goe_uniOH-0.5          2.439e-04       0.121   2.445e-04      -3.612
	Goe_uni2O2AsO2-2       1.856e-04       0.184   1.861e-04      -3.730
	Goe_uni2O2AsOOH-       1.245e-05       0.012   1.248e-05      -4.904
	Goe_uniOAsO2OH-1.5     1.921e-06       0.001   1.926e-06      -5.715
	Goe_uniOHNa+0.5        3.112e-12       0.000   3.120e-12     -11.506
	Goe_uni2O2AsOH-        3.543e-20       0.000   3.552e-20     -19.450
	Goe_uniOAs(OH)2-0.5    5.642e-21       0.000   5.656e-21     -20.247

-----------------------------Solution composition------------------------------

	Elements           Molality       Moles

	As                1.818e-11   1.813e-11
	Cl                2.928e-01   2.921e-01
	Fe                2.150e-02   2.145e-02
	Na                1.002e-03   1.000e-03

----------------------------Description of solution----------------------------

                                       pH  =   0.751      Charge balance
                                       pe  =  14.053      Adjusted to redox equilibrium
                        Activity of water  =   0.991
                 Ionic strength (mol/kgw)  =   3.009e-01
                       Mass of water (kg)  =   9.976e-01
                 Total alkalinity (eq/kg)  =  -2.693e-01
                         Temperature (°C)  =  25.00
                  Electrical balance (eq)  =  -7.116e-04
 Percent error, 100*(Cat-|An|)/(Cat+|An|)  =  -0.13
                               Iterations  =  12
                                  Total H  = 1.109719e+02
                                  Total O  = 5.537285e+01

----------------------------Distribution of species----------------------------

                                               Log       Log       Log    mole V
   Species          Molality    Activity  Molality  Activity     Gamma   cm³/mol

   H+              2.268e-01   1.774e-01    -0.644    -0.751    -0.107      0.00
   H2O-0.01        7.171e-09   7.171e-09    -8.144    -8.144    -0.000     (0)  
   OH-             8.302e-14   5.593e-14   -13.081   -13.252    -0.172     (0)  
   H2O             5.551e+01   9.911e-01     1.744    -0.004     0.000     18.07
As(3)         1.095e-21
   H3AsO3          9.703e-22   1.040e-21   -21.013   -20.983     0.030     (0)  
   H4AsO3+         1.246e-22   9.141e-23   -21.904   -22.039    -0.135     (0)  
   H2AsO3-         5.658e-30   4.150e-30   -29.247   -29.382    -0.135     (0)  
   HAsO3-2         0.000e+00   0.000e+00   -42.792   -43.331    -0.539     (0)  
   AsO3-3          0.000e+00   0.000e+00   -57.068   -58.280    -1.212     (0)  
As(5)         1.818e-11
   H3AsO4          1.746e-11   1.871e-11   -10.758   -10.728     0.030     (0)  
   H2AsO4-         7.206e-13   5.286e-13   -12.142   -12.277    -0.135     (0)  
   HAsO4-2         7.122e-19   2.061e-19   -18.147   -18.686    -0.539     (0)  
   AsO4-3          4.234e-29   2.601e-30   -28.373   -29.585    -1.212     (0)  
Cl            2.928e-01
   Cl-             2.730e-01   1.858e-01    -0.564    -0.731    -0.167     (0)  
   FeCl+2          1.237e-02   3.190e-03    -1.907    -2.496    -0.589     (0)  
   FeCl2+          3.611e-03   2.648e-03    -2.442    -2.577    -0.135     (0)  
   FeCl3           4.592e-05   4.922e-05    -4.338    -4.308     0.030     (0)  
   FeCl+           1.895e-05   1.350e-05    -4.722    -4.870    -0.147     (0)  
Fe(2)         2.005e-04
   Fe+2            1.815e-04   5.263e-05    -3.741    -4.279    -0.538     (0)  
   FeCl+           1.895e-05   1.350e-05    -4.722    -4.870    -0.147     (0)  
   FeOH+           1.305e-13   9.298e-14   -12.884   -13.032    -0.147     (0)  
   Fe(OH)2         4.125e-24   4.421e-24   -23.385   -23.354     0.030     (0)  
   Fe(OH)3-        1.288e-33   9.176e-34   -32.890   -33.037    -0.147     (0)  
Fe(3)         2.130e-02
   FeCl+2          1.237e-02   3.190e-03    -1.907    -2.496    -0.589     (0)  
   Fe+3            5.189e-03   5.685e-04    -2.285    -3.245    -0.960     (0)  
   FeCl2+          3.611e-03   2.648e-03    -2.442    -2.577    -0.135     (0)  
   FeOH+2          7.953e-05   2.050e-05    -4.099    -4.688    -0.589     (0)  
   FeCl3           4.592e-05   4.922e-05    -4.338    -4.308     0.030     (0)  
   Fe2(OH)2+4      1.613e-06   1.132e-08    -5.792    -7.946    -2.154     (0)  
   Fe(OH)2+        5.257e-08   3.793e-08    -7.279    -7.421    -0.142     (0)  
   Fe3(OH)4+5      2.081e-10   8.967e-14    -9.682   -13.047    -3.366     (0)  
   Fe(OH)3         2.547e-14   2.730e-14   -13.594   -13.564     0.030     (0)  
   Fe(OH)4-        1.928e-22   1.391e-22   -21.715   -21.857    -0.142     (0)  
H(0)          3.251e-33
   H2              1.625e-33   1.742e-33   -32.789   -32.759     0.030     (0)  
Na            1.002e-03
   Na+             1.002e-03   7.262e-04    -2.999    -3.139    -0.140     (0)  
O(0)          2.518e-27
   O2              1.259e-27   1.349e-27   -26.900   -26.870     0.030     (0)  

------------------------------Saturation indices-------------------------------

  Phase               SI** log IAP   log K(298 K,   1 atm)

  Arsenolite      -40.57    -41.95   -1.38  As2O3
  As2O5(cr)       -29.67    -21.44    8.23  As2O5
  As_native       -52.85    -65.38  -12.53  As
  Claudetite      -40.61    -41.95   -1.34  As2O3
  Fe(OH)2.7Cl.3     1.59     -1.45   -3.04  Fe(OH)2.7Cl0.3
  Fe(OH)3(a)       -5.89     -1.00    4.89  Fe(OH)3
  Fe3(OH)8        -25.01     -4.79   20.22  Fe3(OH)8
  Fix_H+           -0.75     -0.75    0.00  H+
  Goethite         -0.00     -1.00   -1.00  FeOOH
  H2(g)           -29.61    -32.76   -3.15  H2
  H2O(g)           -1.51     -0.00    1.51  H2O
  Halite           -5.45     -3.87    1.58  NaCl
  Hematite          2.01     -2.00   -4.01  Fe2O3
  Maghemite        -8.38     -2.00    6.39  Fe2O3
  Magnetite        -8.51     -4.78    3.74  Fe3O4
  O2(g)           -23.98    -26.87   -2.89  O2
  Scorodite       -12.59    -32.84  -20.25  FeAsO4:2H2O

**For a gas, SI = log10(fugacity). Fugacity = pressure * phi / 1 atm.
  For ideal gases, phi = 1.

------------------
End of simulation.
------------------

------------------------------------
Reading input data for simulation 4.
------------------------------------

	Title initial surface calculation
	SURFACE 1
		cd_music
		Goe_triOH0.5      	Goethite       equi   1.50000e-001  53300
		capacitances           .85   .75
		Goe_uniOHH0.5      	Goethite       equi   2.00000e-001  53300
	        equilibrate solution 1
	END
-----
TITLE
-----

 initial surface calculation

------------------------------------------------------
Beginning of initial surface-composition calculations.
------------------------------------------------------

Surface 1.	

Goe           
	  8.914e-04  Surface charge, plane 0, eq
	 -5.948e-04  Surface charge, plane 1, eq
	  0.000e+00  Surface charge, plane 2, eq
	  2.966e-04  Sum of surface charge, all planes, eq

	  1.614e-01  sigma, plane 0, C/m²
	 -1.077e-01  sigma, plane 1, C/m²
	  0.000e+00  sigma, plane 2, C/m²
	 -5.370e-02  sigma, diffuse layer, C/m²

	  3.018e-01  psi, plane 0, V
	  1.119e-01  psi, plane 1, V
	  4.034e-02  psi, plane 2, V

	  7.910e-06  exp(-F*psi/RT), plane 0
	  1.281e-02  exp(-F*psi/RT), plane 1
	  2.080e-01  exp(-F*psi/RT), plane 2

	  8.500e-01  capacitance 0-1, F/m^2
	  7.500e-01  capacitance 1-2, F/m^2
	  5.330e+04  specific area, m^2/mol Goethite
	  5.330e+02  m^2 for   1.000e-02 moles of Goethite


Goe_tri       
	  1.500e-03  moles	[0.15 mol/(mol Goethite)]
	                                        Mole                     Log
	Species                    Moles    Fraction    Molality    Molality

	Goe_triOH+0.5          1.499e-03       1.000   1.503e-03      -2.823
	Goe_triO-0.5           6.730e-07       0.000   6.746e-07      -6.171
	Goe_triONa+0.5         1.573e-12       0.000   1.576e-12     -11.802

Goe_uni       
	  2.000e-03  moles	[0.2 mol/(mol Goethite)]
	                                        Mole                     Log
	Species                    Moles    Fraction    Molality    Molality

	Goe_uniOH2+0.5         7.942e-04       0.397   7.961e-04      -3.099
	Goe_uni2O2AsOOH-       4.621e-04       0.462   4.632e-04      -3.334
	Goe_uniOAsO2OH-1.5     2.123e-04       0.106   2.128e-04      -3.672
	Goe_uni2O2AsO2-2       3.452e-05       0.035   3.460e-05      -4.461
	Goe_uniOH-0.5          3.565e-07       0.000   3.573e-07      -6.447
	Goe_uniOHNa+0.5        8.330e-13       0.000   8.350e-13     -12.078
	Goe_uniOAs(OH)2-0.5    1.020e-16       0.000   1.023e-16     -15.990
	Goe_uni2O2AsOH-        1.086e-18       0.000   1.089e-18     -17.963

------------------
End of simulation.
------------------

------------------------------------
Reading input data for simulation 5.
------------------------------------

	TITLE should be the same as the initial surface calculation
	USE solution 1
	USE equilibrium_phases 1
	USE surface 1
	END
-----
TITLE
-----

 should be the same as the initial surface calculation

-----------------------------------------
Beginning of batch-reaction calculations.
-----------------------------------------

Reaction step 1.

Using solution 1.	Solution after simulation 2.
Using surface 1.	
Using pure phase assemblage 1.	

-------------------------------Phase assemblage--------------------------------

                                                      Moles in assemblage
Phase               SI  log IAP  log K(T, P)   Initial       Final       Delta

Goethite         -0.00    -1.00     -1.00    1.000e-02   1.000e-02   1.661e-12

------------------------------Surface composition------------------------------

Goe           
	  8.914e-04  Surface charge, plane 0, eq
	 -5.948e-04  Surface charge, plane 1, eq
	  0.000e+00  Surface charge, plane 2, eq
	  2.966e-04  Sum of surface charge, all planes, eq

	  1.614e-01  sigma, plane 0, C/m²
	 -1.077e-01  sigma, plane 1, C/m²
	  0.000e+00  sigma, plane 2, C/m²
	 -5.370e-02  sigma, diffuse layer, C/m²

	  3.018e-01  psi, plane 0, V
	  1.119e-01  psi, plane 1, V
	  4.034e-02  psi, plane 2, V

	  7.910e-06  exp(-F*psi/RT), plane 0
	  1.281e-02  exp(-F*psi/RT), plane 1
	  2.080e-01  exp(-F*psi/RT), plane 2

	  8.500e-01  capacitance 0-1, F/m^2
	  7.500e-01  capacitance 1-2, F/m^2
	  5.330e+04  specific area, m^2/mol Goethite
	  5.330e+02  m^2 for   1.000e-02 moles of Goethite


Goe_tri       
	  1.500e-03  moles	[0.15 mol/(mol Goethite)]
	                                        Mole                     Log
	Species                    Moles    Fraction    Molality    Molality

	Goe_triOH+0.5          1.499e-03       1.000   1.503e-03      -2.823
	Goe_triO-0.5           6.730e-07       0.000   6.746e-07      -6.171
	Goe_triONa+0.5         1.573e-12       0.000   1.576e-12     -11.802

Goe_uni       
	  2.000e-03  moles	[0.2 mol/(mol Goethite)]
	                                        Mole                     Log
	Species                    Moles    Fraction    Molality    Molality

	Goe_uniOH2+0.5         7.942e-04       0.397   7.961e-04      -3.099
	Goe_uni2O2AsOOH-       4.621e-04       0.462   4.632e-04      -3.334
	Goe_uniOAsO2OH-1.5     2.123e-04       0.106   2.128e-04      -3.672
	Goe_uni2O2AsO2-2       3.452e-05       0.035   3.460e-05      -4.461
	Goe_uniOH-0.5          3.565e-07       0.000   3.573e-07      -6.447
	Goe_uniOHNa+0.5        8.330e-13       0.000   8.350e-13     -12.078
	Goe_uniOAs(OH)2-0.5    1.020e-16       0.000   1.023e-16     -15.990
	Goe_uni2O2AsOH-        1.086e-18       0.000   1.089e-18     -17.963

-----------------------------Solution composition------------------------------

	Elements           Molality       Moles

	As                2.005e-04   2.000e-04
	Cl                2.928e-01   2.921e-01
	Fe                2.161e-02   2.156e-02
	Na                1.002e-03   1.000e-03

----------------------------Description of solution----------------------------

                                       pH  =   0.750      Charge balance
                                       pe  =  14.056      Adjusted to redox equilibrium
                        Activity of water  =   0.991
                 Ionic strength (mol/kgw)  =   3.013e-01
                       Mass of water (kg)  =   9.976e-01
                 Total alkalinity (eq/kg)  =  -2.702e-01
                         Temperature (°C)  =  25.00
                  Electrical balance (eq)  =   1.668e-10
 Percent error, 100*(Cat-|An|)/(Cat+|An|)  =   0.00
                               Iterations  =  12
                                  Total H  = 1.109725e+02
                                  Total O  = 5.537347e+01

----------------------------Distribution of species----------------------------

                                               Log       Log       Log    mole V
   Species          Molality    Activity  Molality  Activity     Gamma   cm³/mol

   H+              2.272e-01   1.777e-01    -0.644    -0.750    -0.107      0.00
   H2O-0.01        7.171e-09   7.171e-09    -8.144    -8.144    -0.000     (0)  
   OH-             8.289e-14   5.583e-14   -13.081   -13.253    -0.172     (0)  
   H2O             5.551e+01   9.911e-01     1.744    -0.004     0.000     18.07
As(3)         1.199e-14
   H3AsO3          1.062e-14   1.139e-14   -13.974   -13.944     0.030     (0)  
   H4AsO3+         1.367e-15   1.002e-15   -14.864   -14.999    -0.135     (0)  
   H2AsO3-         6.184e-23   4.536e-23   -22.209   -22.343    -0.135     (0)  
   HAsO3-2         1.760e-36   5.092e-37   -35.754   -36.293    -0.539     (0)  
   AsO3-3          0.000e+00   0.000e+00   -50.031   -51.243    -1.212     (0)  
As(5)         2.005e-04
   H3AsO4          1.925e-04   2.064e-04    -3.715    -3.685     0.030     (0)  
   H2AsO4-         7.936e-06   5.820e-06    -5.100    -5.235    -0.135     (0)  
   HAsO4-2         7.831e-12   2.266e-12   -11.106   -11.645    -0.539     (0)  
   AsO4-3          4.648e-22   2.854e-23   -21.333   -22.544    -1.212     (0)  
Cl            2.928e-01
   Cl-             2.729e-01   1.857e-01    -0.564    -0.731    -0.167     (0)  
   FeCl+2          1.244e-02   3.205e-03    -1.905    -2.494    -0.589     (0)  
   FeCl2+          3.626e-03   2.659e-03    -2.441    -2.575    -0.135     (0)  
   FeCl3           4.608e-05   4.939e-05    -4.336    -4.306     0.030     (0)  
   FeCl+           1.893e-05   1.349e-05    -4.723    -4.870    -0.147     (0)  
Fe(2)         2.005e-04
   Fe+2            1.815e-04   5.261e-05    -3.741    -4.279    -0.538     (0)  
   FeCl+           1.893e-05   1.349e-05    -4.723    -4.870    -0.147     (0)  
   FeOH+           1.302e-13   9.279e-14   -12.885   -13.032    -0.147     (0)  
   Fe(OH)2         4.109e-24   4.405e-24   -23.386   -23.356     0.030     (0)  
   Fe(OH)3-        1.281e-33   9.127e-34   -32.892   -33.040    -0.147     (0)  
Fe(3)         2.141e-02
   FeCl+2          1.244e-02   3.205e-03    -1.905    -2.494    -0.589     (0)  
   Fe+3            5.219e-03   5.714e-04    -2.282    -3.243    -0.961     (0)  
   FeCl2+          3.626e-03   2.659e-03    -2.441    -2.575    -0.135     (0)  
   FeOH+2          7.984e-05   2.057e-05    -4.098    -4.687    -0.589     (0)  
   FeCl3           4.608e-05   4.939e-05    -4.336    -4.306     0.030     (0)  
   Fe2(OH)2+4      1.625e-06   1.139e-08    -5.789    -7.943    -2.154     (0)  
   Fe(OH)2+        5.267e-08   3.799e-08    -7.278    -7.420    -0.142     (0)  
   Fe3(OH)4+5      2.101e-10   9.044e-14    -9.678   -13.044    -3.366     (0)  
   Fe(OH)3         2.547e-14   2.730e-14   -13.594   -13.564     0.030     (0)  
   Fe(OH)4-        1.925e-22   1.388e-22   -21.716   -21.857    -0.142     (0)  
H(0)          3.226e-33
   H2              1.613e-33   1.729e-33   -32.792   -32.762     0.030     (0)  
Na            1.002e-03
   Na+             1.002e-03   7.261e-04    -2.999    -3.139    -0.140     (0)  
O(0)          2.556e-27
   O2              1.278e-27   1.370e-27   -26.894   -26.863     0.030     (0)  

------------------------------Saturation indices-------------------------------

  Phase               SI** log IAP   log K(298 K,   1 atm)

  Arsenolite      -26.50    -27.88   -1.38  As2O3
  As2O5(cr)       -15.59     -7.36    8.23  As2O5
  As_native       -45.82    -58.35  -12.53  As
  Claudetite      -26.54    -27.88   -1.34  As2O3
  Fe(OH)2.7Cl.3     1.59     -1.45   -3.04  Fe(OH)2.7Cl0.3
  Fe(OH)3(a)       -5.89     -1.00    4.89  Fe(OH)3
  Fe3(OH)8        -25.02     -4.79   20.22  Fe3(OH)8
  Fix_H+           -0.75     -0.75    0.00  H+
  Goethite         -0.00     -1.00   -1.00  FeOOH
  H2(g)           -29.61    -32.76   -3.15  H2
  H2O(g)           -1.51     -0.00    1.51  H2O
  Halite           -5.45     -3.87    1.58  NaCl
  Hematite          2.01     -2.00   -4.01  Fe2O3
  Maghemite        -8.38     -2.00    6.39  Fe2O3
  Magnetite        -8.52     -4.78    3.74  Fe3O4
  O2(g)           -23.97    -26.86   -2.89  O2
  Scorodite        -5.55    -25.80  -20.25  FeAsO4:2H2O

**For a gas, SI = log10(fugacity). Fugacity = pressure * phi / 1 atm.
  For ideal gases, phi = 1.

------------------
End of simulation.
------------------

------------------------------------
Reading input data for simulation 6.
------------------------------------

	Title dissolve all goethite
	REACTION 1
		HCl	1.0
		0.25	moles
	USE solution 1
	USE equilibrium_phases 1
	USE surface 1
	SAVE solution 2
	SAVE equilibrium_phases 2
	SAVE surface 2
	END
-----
TITLE
-----

 dissolve all goethite

-----------------------------------------
Beginning of batch-reaction calculations.
-----------------------------------------

Reaction step 1.

Using solution 1.	Solution after simulation 2.
Using surface 1.	
Using pure phase assemblage 1.	
Using reaction 1.	

Reaction 1.	

	  2.500e-01 moles of the following reaction have been added:

	                 Relative
	Reactant            moles

	HCl                  1.00000

	                 Relative
	Element             moles
	Cl                   1.00000
	H                    1.00000

-------------------------------Phase assemblage--------------------------------

                                                      Moles in assemblage
Phase               SI  log IAP  log K(T, P)   Initial       Final       Delta

Goethite         -1.01    -2.01     -1.00    1.000e-02           0  -1.000e-02

------------------------------Surface composition------------------------------

Goe           
	  7.649e-20  Surface charge, plane 0, eq
	 -5.128e-20  Surface charge, plane 1, eq
	  0.000e+00  Surface charge, plane 2, eq
	  2.521e-20  Sum of surface charge, all planes, eq

	undefined  sigma, C/m²
	  2.642e-01  psi, plane 0, V
	  1.538e-01  psi, plane 1, V
	  5.758e-02  psi, plane 2, V

	  3.417e-05  exp(-F*psi/RT), plane 0
	  2.512e-03  exp(-F*psi/RT), plane 1
	  1.063e-01  exp(-F*psi/RT), plane 2

	  8.500e-01  capacitance 0-1, F/m^2
	  7.500e-01  capacitance 1-2, F/m^2
	  5.330e+04  specific area, m^2/mol Goethite
	  0.000e+00  m^2 for   0.000e+00 moles of Goethite


Goe_tri       
	  0.000e+00  moles	[0.15 mol/(mol Goethite)]
	                                        Mole                     Log
	Species                    Moles    Fraction    Molality    Molality

	Goe_triOH+0.5          2.771e-20       0.000   2.777e-20     -19.556
	Goe_triO-0.5           1.500e-24       0.000   1.503e-24     -23.823
	Goe_triONa+0.5         6.711e-31       0.000   6.725e-31     -30.172

Goe_uni       
	  0.000e+00  moles	[0.2 mol/(mol Goethite)]
	                                        Mole                     Log
	Species                    Moles    Fraction    Molality    Molality

	Goe_uniOAsO2OH-1.5     3.945e-20       0.000   3.953e-20     -19.403
	Goe_uniOH2+0.5         3.695e-20       0.000   3.702e-20     -19.432
	Goe_uniOH-0.5          2.000e-24       0.000   2.004e-24     -23.698
	Goe_uniOHNa+0.5        8.948e-31       0.000   8.967e-31     -30.047
	Goe_uniOAs(OH)2-0.5    2.225e-32       0.000   2.230e-32     -31.652
	Goe_uni2O2AsOOH-       8.688e-40       0.000   8.706e-40     -39.060
	Goe_uni2O2AsO2-2       1.227e-40       0.000   1.230e-40     -39.910
	Goe_uni2O2AsOH-        4.676e-54       0.000   4.686e-54     -53.329

-----------------------------Solution composition------------------------------

	Elements           Molality       Moles

	As                9.108e-04   9.089e-04
	Cl                5.432e-01   5.421e-01
	Fe                3.162e-02   3.156e-02
	Na                1.002e-03   1.000e-03

----------------------------Description of solution----------------------------

                                       pH  =   0.467      Charge balance
                                       pe  =  14.000      Adjusted to redox equilibrium
                        Activity of water  =   0.983
                 Ionic strength (mol/kgw)  =   5.415e-01
                       Mass of water (kg)  =   9.979e-01
                 Total alkalinity (eq/kg)  =  -5.116e-01
                         Temperature (°C)  =  25.00
                  Electrical balance (eq)  =   2.966e-04
 Percent error, 100*(Cat-|An|)/(Cat+|An|)  =   0.03
                               Iterations  =   7
                                  Total H  = 1.112325e+02
                                  Total O  = 5.539510e+01

----------------------------Distribution of species----------------------------

                                               Log       Log       Log    mole V
   Species          Molality    Activity  Molality  Activity     Gamma   cm³/mol

   H+              4.479e-01   3.412e-01    -0.349    -0.467    -0.118      0.00
   H2O-0.01        7.123e-09   7.123e-09    -8.147    -8.147    -0.000     (0)  
   OH-             4.607e-14   2.885e-14   -13.337   -13.540    -0.203     (0)  
   H2O             5.551e+01   9.832e-01     1.744    -0.007     0.000     18.07
As(3)         2.978e-13
   H3AsO3          2.363e-13   2.677e-13   -12.627   -12.572     0.054     (0)  
   H4AsO3+         6.151e-14   4.525e-14   -13.211   -13.344    -0.133     (0)  
   H2AsO3-         7.552e-22   5.555e-22   -21.122   -21.255    -0.133     (0)  
   HAsO3-2         1.110e-35   3.249e-36   -34.955   -35.488    -0.533     (0)  
   AsO3-3          0.000e+00   0.000e+00   -49.521   -50.721    -1.200     (0)  
As(5)         9.108e-04
   H3AsO4          8.906e-04   1.009e-03    -3.050    -2.996     0.054     (0)  
   H2AsO4-         2.015e-05   1.482e-05    -4.696    -4.829    -0.133     (0)  
   HAsO4-2         1.026e-11   3.006e-12   -10.989   -11.522    -0.533     (0)  
   AsO4-3          3.127e-22   1.972e-23   -21.505   -22.705    -1.200     (0)  
Cl            5.432e-01
   Cl-             5.083e-01   3.243e-01    -0.294    -0.489    -0.195     (0)  
   FeCl+2          1.882e-02   3.935e-03    -1.725    -2.405    -0.680     (0)  
   FeCl2+          7.750e-03   5.701e-03    -2.111    -2.244    -0.133     (0)  
   FeCl3           1.632e-04   1.849e-04    -3.787    -3.733     0.054     (0)  
   FeCl+           2.787e-05   1.885e-05    -4.555    -4.725    -0.170     (0)  
Fe(2)         2.004e-04
   Fe+2            1.725e-04   4.210e-05    -3.763    -4.376    -0.613     (0)  
   FeCl+           2.787e-05   1.885e-05    -4.555    -4.725    -0.170     (0)  
   FeOH+           5.673e-14   3.836e-14   -13.246   -13.416    -0.170     (0)  
   Fe(OH)2         8.307e-25   9.410e-25   -24.081   -24.026     0.054     (0)  
   Fe(OH)3-        1.490e-34   1.008e-34   -33.827   -33.997    -0.170     (0)  
Fe(3)         3.142e-02
   FeCl+2          1.882e-02   3.935e-03    -1.725    -2.405    -0.680     (0)  
   FeCl2+          7.750e-03   5.701e-03    -2.111    -2.244    -0.133     (0)  
   Fe+3            4.652e-03   4.018e-04    -2.332    -3.396    -1.064     (0)  
   FeCl3           1.632e-04   1.849e-04    -3.787    -3.733     0.054     (0)  
   FeOH+2          3.576e-05   7.476e-06    -4.447    -5.126    -0.680     (0)  
   Fe2(OH)2+4      2.046e-07   1.504e-09    -6.689    -8.823    -2.134     (0)  
   Fe(OH)2+        1.038e-08   7.134e-09    -7.984    -8.147    -0.163     (0)  
   Fe3(OH)4+5      4.836e-12   2.242e-15   -11.315   -14.649    -3.334     (0)  
   Fe(OH)3         2.338e-15   2.648e-15   -14.631   -14.577     0.054     (0)  
   Fe(OH)4-        1.013e-23   6.961e-24   -22.995   -23.157    -0.163     (0)  
H(0)          1.456e-32
   H2              7.282e-33   8.249e-33   -32.138   -32.084     0.054     (0)  
Na            1.002e-03
   Na+             1.002e-03   7.091e-04    -2.999    -3.149    -0.150     (0)  
O(0)          1.045e-28
   O2              5.227e-29   5.921e-29   -28.282   -28.228     0.054     (0)  

------------------------------Saturation indices-------------------------------

  Phase               SI** log IAP   log K(298 K,   1 atm)

  Arsenolite      -23.74    -25.12   -1.38  As2O3
  As2O5(cr)       -14.20     -5.97    8.23  As2O5
  As_native       -43.42    -55.95  -12.53  As
  Claudetite      -23.78    -25.12   -1.34  As2O3
  Fe(OH)2.7Cl.3     0.74     -2.30   -3.04  Fe(OH)2.7Cl0.3
  Fe(OH)3(a)       -6.91     -2.02    4.89  Fe(OH)3
  Fe3(OH)8        -27.71     -7.49   20.22  Fe3(OH)8
  Fix_H+           -0.47     -0.47    0.00  H+
  Goethite         -1.01     -2.01   -1.00  FeOOH
  H2(g)           -28.93    -32.08   -3.15  H2
  H2O(g)           -1.52     -0.01    1.51  H2O
  Halite           -5.22     -3.64    1.58  NaCl
  Hematite         -0.00     -4.01   -4.01  Fe2O3
  Maghemite       -10.40     -4.01    6.39  Fe2O3
  Magnetite       -11.20     -7.46    3.74  Fe3O4
  O2(g)           -25.34    -28.23   -2.89  O2
  Scorodite        -5.87    -26.12  -20.25  FeAsO4:2H2O

**For a gas, SI = log10(fugacity). Fugacity = pressure * phi / 1 atm.
  For ideal gases, phi = 1.

------------------
End of simulation.
------------------

------------------------------------
Reading input data for simulation 7.
------------------------------------

	TITLE Should be the same as previous simulation
	USE solution 2
	USE equilibrium_phases 2
	USE surface 2
	END
-----
TITLE
-----

 Should be the same as previous simulation

-----------------------------------------
Beginning of batch-reaction calculations.
-----------------------------------------

Reaction step 1.

Using solution 2.	Solution after simulation 6.
Using surface 2.	
Using pure phase assemblage 2.	Pure-phase assemblage after simulation 6.

-------------------------------Phase assemblage--------------------------------

                                                      Moles in assemblage
Phase               SI  log IAP  log K(T, P)   Initial       Final       Delta

Goethite         -1.01    -2.01     -1.00    0.000e+00           0   0.000e+00

------------------------------Surface composition------------------------------

Goe           
	  7.649e-20  Surface charge, plane 0, eq
	 -5.128e-20  Surface charge, plane 1, eq
	  0.000e+00  Surface charge, plane 2, eq
	  2.521e-20  Sum of surface charge, all planes, eq

	undefined  sigma, C/m²
	  2.642e-01  psi, plane 0, V
	  1.538e-01  psi, plane 1, V
	  5.758e-02  psi, plane 2, V

	  3.417e-05  exp(-F*psi/RT), plane 0
	  2.512e-03  exp(-F*psi/RT), plane 1
	  1.063e-01  exp(-F*psi/RT), plane 2

	  8.500e-01  capacitance 0-1, F/m^2
	  7.500e-01  capacitance 1-2, F/m^2
	  5.330e+04  specific area, m^2/mol Goethite
	  0.000e+00  m^2 for   0.000e+00 moles of Goethite


Goe_tri       
	  0.000e+00  moles	[0.15 mol/(mol Goethite)]
	                                        Mole                     Log
	Species                    Moles    Fraction    Molality    Molality

	Goe_triOH+0.5          2.771e-20       0.000   2.777e-20     -19.556
	Goe_triO-0.5           1.500e-24       0.000   1.503e-24     -23.823
	Goe_triONa+0.5         6.711e-31       0.000   6.725e-31     -30.172

Goe_uni       
	  0.000e+00  moles	[0.2 mol/(mol Goethite)]
	                                        Mole                     Log
	Species                    Moles    Fraction    Molality    Molality

	Goe_uniOAsO2OH-1.5     3.945e-20       0.000   3.953e-20     -19.403
	Goe_uniOH2+0.5         3.695e-20       0.000   3.702e-20     -19.432
	Goe_uniOH-0.5          2.000e-24       0.000   2.004e-24     -23.698
	Goe_uniOHNa+0.5        8.948e-31       0.000   8.967e-31     -30.047
	Goe_uniOAs(OH)2-0.5    2.225e-32       0.000   2.230e-32     -31.652
	Goe_uni2O2AsOOH-       8.688e-40       0.000   8.706e-40     -39.060
	Goe_uni2O2AsO2-2       1.227e-40       0.000   1.230e-40     -39.910
	Goe_uni2O2AsOH-        4.676e-54       0.000   4.686e-54     -53.329

-----------------------------Solution composition------------------------------

	Elements           Molality       Moles

	As                9.108e-04   9.089e-04
	Cl                5.432e-01   5.421e-01
	Fe                3.162e-02   3.156e-02
	Na                1.002e-03   1.000e-03

----------------------------Description of solution----------------------------

                                       pH  =   0.467      Charge balance
                                       pe  =  14.000      Adjusted to redox equilibrium
                        Activity of water  =   0.983
                 Ionic strength (mol/kgw)  =   5.415e-01
                       Mass of water (kg)  =   9.979e-01
                 Total alkalinity (eq/kg)  =  -5.116e-01
                         Temperature (°C)  =  25.00
                  Electrical balance (eq)  =   2.966e-04
 Percent error, 100*(Cat-|An|)/(Cat+|An|)  =   0.03
                               Iterations  =   2
                                  Total H  = 1.112325e+02
                                  Total O  = 5.539510e+01

----------------------------Distribution of species----------------------------

                                               Log       Log       Log    mole V
   Species          Molality    Activity  Molality  Activity     Gamma   cm³/mol

   H+              4.479e-01   3.412e-01    -0.349    -0.467    -0.118      0.00
   H2O-0.01        7.123e-09   7.123e-09    -8.147    -8.147    -0.000     (0)  
   OH-             4.607e-14   2.885e-14   -13.337   -13.540    -0.203     (0)  
   H2O             5.551e+01   9.832e-01     1.744    -0.007     0.000     18.07
As(3)         2.978e-13
   H3AsO3          2.363e-13   2.677e-13   -12.627   -12.572     0.054     (0)  
   H4AsO3+         6.151e-14   4.525e-14   -13.211   -13.344    -0.133     (0)  
   H2AsO3-         7.552e-22   5.555e-22   -21.122   -21.255    -0.133     (0)  
   HAsO3-2         1.110e-35   3.249e-36   -34.955   -35.488    -0.533     (0)  
   AsO3-3          0.000e+00   0.000e+00   -49.521   -50.721    -1.200     (0)  
As(5)         9.108e-04
   H3AsO4          8.906e-04   1.009e-03    -3.050    -2.996     0.054     (0)  
   H2AsO4-         2.015e-05   1.482e-05    -4.696    -4.829    -0.133     (0)  
   HAsO4-2         1.026e-11   3.006e-12   -10.989   -11.522    -0.533     (0)  
   AsO4-3          3.127e-22   1.972e-23   -21.505   -22.705    -1.200     (0)  
Cl            5.432e-01
   Cl-             5.083e-01   3.243e-01    -0.294    -0.489    -0.195     (0)  
   FeCl+2          1.882e-02   3.935e-03    -1.725    -2.405    -0.680     (0)  
   FeCl2+          7.750e-03   5.701e-03    -2.111    -2.244    -0.133     (0)  
   FeCl3           1.632e-04   1.849e-04    -3.787    -3.733     0.054     (0)  
   FeCl+           2.787e-05   1.885e-05    -4.555    -4.725    -0.170     (0)  
Fe(2)         2.004e-04
   Fe+2            1.725e-04   4.210e-05    -3.763    -4.376    -0.613     (0)  
   FeCl+           2.787e-05   1.885e-05    -4.555    -4.725    -0.170     (0)  
   FeOH+           5.673e-14   3.836e-14   -13.246   -13.416    -0.170     (0)  
   Fe(OH)2         8.307e-25   9.410e-25   -24.081   -24.026     0.054     (0)  
   Fe(OH)3-        1.490e-34   1.008e-34   -33.827   -33.997    -0.170     (0)  
Fe(3)         3.142e-02
   FeCl+2          1.882e-02   3.935e-03    -1.725    -2.405    -0.680     (0)  
   FeCl2+          7.750e-03   5.701e-03    -2.111    -2.244    -0.133     (0)  
   Fe+3            4.652e-03   4.018e-04    -2.332    -3.396    -1.064     (0)  
   FeCl3           1.632e-04   1.849e-04    -3.787    -3.733     0.054     (0)  
   FeOH+2          3.576e-05   7.476e-06    -4.447    -5.126    -0.680     (0)  
   Fe2(OH)2+4      2.046e-07   1.504e-09    -6.689    -8.823    -2.134     (0)  
   Fe(OH)2+        1.038e-08   7.134e-09    -7.984    -8.147    -0.163     (0)  
   Fe3(OH)4+5      4.836e-12   2.242e-15   -11.315   -14.649    -3.334     (0)  
   Fe(OH)3         2.338e-15   2.648e-15   -14.631   -14.577     0.054     (0)  
   Fe(OH)4-        1.013e-23   6.961e-24   -22.995   -23.157    -0.163     (0)  
H(0)          1.456e-32
   H2              7.282e-33   8.249e-33   -32.138   -32.084     0.054     (0)  
Na            1.002e-03
   Na+             1.002e-03   7.091e-04    -2.999    -3.149    -0.150     (0)  
O(0)          1.045e-28
   O2              5.227e-29   5.921e-29   -28.282   -28.228     0.054     (0)  

------------------------------Saturation indices-------------------------------

  Phase               SI** log IAP   log K(298 K,   1 atm)

  Arsenolite      -23.74    -25.12   -1.38  As2O3
  As2O5(cr)       -14.20     -5.97    8.23  As2O5
  As_native       -43.42    -55.95  -12.53  As
  Claudetite      -23.78    -25.12   -1.34  As2O3
  Fe(OH)2.7Cl.3     0.74     -2.30   -3.04  Fe(OH)2.7Cl0.3
  Fe(OH)3(a)       -6.91     -2.02    4.89  Fe(OH)3
  Fe3(OH)8        -27.71     -7.49   20.22  Fe3(OH)8
  Fix_H+           -0.47     -0.47    0.00  H+
  Goethite         -1.01     -2.01   -1.00  FeOOH
  H2(g)           -28.93    -32.08   -3.15  H2
  H2O(g)           -1.52     -0.01    1.51  H2O
  Halite           -5.22     -3.64    1.58  NaCl
  Hematite         -0.00     -4.01   -4.01  Fe2O3
  Maghemite       -10.40     -4.01    6.39  Fe2O3
  Magnetite       -11.20     -7.46    3.74  Fe3O4
  O2(g)           -25.34    -28.23   -2.89  O2
  Scorodite        -5.87    -26.12  -20.25  FeAsO4:2H2O

**For a gas, SI = log10(fugacity). Fugacity = pressure * phi / 1 atm.
  For ideal gases, phi = 1.

------------------
End of simulation.
------------------

------------------------------------
Reading input data for simulation 8.
------------------------------------

	TITLE Precipitate goethite
	USE solution 1
	SURFACE 1
		cd_music
		Goe_triOH0.5      	Goethite       equi   1.50000e-001  53300
		capacitances           .85   .75
		Goe_uniOHH0.5      	Goethite       equi   2.00000e-001  53300
	        equilibrate solution 1
	EQUILIBRIUM_PHASES 1
		Goethite	0.0	0.0
	REACTION 1
		FeCl3	1.0
		0.25	moles
	END
-----
TITLE
-----

 Precipitate goethite

------------------------------------------------------
Beginning of initial surface-composition calculations.
------------------------------------------------------

Surface 1.	

Goe           
	  2.155e-26  Surface charge, plane 0, eq
	 -9.989e-27  Surface charge, plane 1, eq
	  0.000e+00  Surface charge, plane 2, eq
	  1.156e-26  Sum of surface charge, all planes, eq

	undefined  sigma, C/m²
	  2.642e-01  psi, plane 0, V
	  1.538e-01  psi, plane 1, V
	  5.758e-02  psi, plane 2, V

	  3.417e-05  exp(-F*psi/RT), plane 0
	  2.512e-03  exp(-F*psi/RT), plane 1
	  1.063e-01  exp(-F*psi/RT), plane 2

	  8.500e-01  capacitance 0-1, F/m^2
	  7.500e-01  capacitance 1-2, F/m^2
	  5.330e+04  specific area, m^2/mol Goethite
	  0.000e+00  m^2 for   0.000e+00 moles of Goethite


Goe_tri       
	  0.000e+00  moles	[0.15 mol/(mol Goethite)]
	                                        Mole                     Log
	Species                    Moles    Fraction    Molality    Molality

	Goe_triOH+0.5          9.623e-27       0.000   9.646e-27     -26.016
	Goe_triO-0.5           1.000e-30       0.000   1.002e-30     -29.999
	Goe_triONa+0.5         4.581e-37       0.000   4.592e-37     -36.338

Goe_uni       
	  0.000e+00  moles	[0.2 mol/(mol Goethite)]
	                                        Mole                     Log
	Species                    Moles    Fraction    Molality    Molality

	Goe_uniOH2+0.5         9.623e-27       0.000   9.646e-27     -26.016
	Goe_uniOAsO2OH-1.5     7.684e-27       0.000   7.702e-27     -26.113
	Goe_uniOH-0.5          1.000e-30       0.000   1.002e-30     -29.999
	Goe_uniOHNa+0.5        4.581e-37       0.000   4.592e-37     -36.338
	Goe_uniOAs(OH)2-0.5    4.695e-40       0.000   4.706e-40     -39.327
	Goe_uni2O2AsOOH-       4.372e-53       0.000   4.382e-53     -52.358
	Goe_uni2O2AsO2-2       1.185e-53       0.000   1.188e-53     -52.925
	Goe_uni2O2AsOH-        4.893e-68       0.000   4.904e-68     -67.309

-----------------------------------------
Beginning of batch-reaction calculations.
-----------------------------------------

Reaction step 1.

Using solution 1.	Solution after simulation 2.
Using surface 1.	
Using pure phase assemblage 1.	
Using reaction 1.	

Reaction 1.	

	  2.500e-01 moles of the following reaction have been added:

	                 Relative
	Reactant            moles

	FeCl3                1.00000

	                 Relative
	Element             moles
	Cl                   3.00000
	Fe                   1.00000

-------------------------------Phase assemblage--------------------------------

                                                      Moles in assemblage
Phase               SI  log IAP  log K(T, P)   Initial       Final       Delta

Goethite          0.00    -1.00     -1.00    0.000e+00   3.929e-02   3.929e-02

------------------------------Surface composition------------------------------

Goe           
	  3.728e-03  Surface charge, plane 0, eq
	 -2.880e-04  Surface charge, plane 1, eq
	  0.000e+00  Surface charge, plane 2, eq
	  3.440e-03  Sum of surface charge, all planes, eq

	  1.718e-01  sigma, plane 0, C/m²
	 -1.327e-02  sigma, plane 1, C/m²
	  0.000e+00  sigma, plane 2, C/m²
	 -1.585e-01  sigma, diffuse layer, C/m²

	  4.755e-01  psi, plane 0, V
	  2.734e-01  psi, plane 1, V
	  6.201e-02  psi, plane 2, V

	  9.158e-09  exp(-F*psi/RT), plane 0
	  2.391e-05  exp(-F*psi/RT), plane 1
	  8.950e-02  exp(-F*psi/RT), plane 2

	  8.500e-01  capacitance 0-1, F/m^2
	  7.500e-01  capacitance 1-2, F/m^2
	  5.330e+04  specific area, m^2/mol Goethite
	  2.094e+03  m^2 for   3.929e-02 moles of Goethite


Goe_tri       
	  5.893e-03  moles	[0.15 mol/(mol Goethite)]
	                                        Mole                     Log
	Species                    Moles    Fraction    Molality    Molality

	Goe_triOH+0.5          4.639e-03       0.787   4.656e-03      -2.332
	Goe_triO-0.5           1.255e-03       0.213   1.259e-03      -2.900
	Goe_triONa+0.5         5.408e-12       0.000   5.428e-12     -11.265

Goe_uni       
	  7.858e-03  moles	[0.2 mol/(mol Goethite)]
	                                        Mole                     Log
	Species                    Moles    Fraction    Molality    Molality

	Goe_uniOH2+0.5         5.871e-03       0.747   5.893e-03      -2.230
	Goe_uniOH-0.5          1.588e-03       0.202   1.594e-03      -2.797
	Goe_uni2O2AsO2-2       1.923e-04       0.049   1.931e-04      -3.714
	Goe_uni2O2AsOOH-       6.535e-06       0.002   6.560e-06      -5.183
	Goe_uniOAsO2OH-1.5     1.116e-06       0.000   1.120e-06      -5.951
	Goe_uniOHNa+0.5        6.844e-12       0.000   6.871e-12     -11.163
	Goe_uni2O2AsOH-        1.670e-21       0.000   1.677e-21     -20.776
	Goe_uniOAs(OH)2-0.5    1.487e-22       0.000   1.492e-22     -21.826

-----------------------------Solution composition------------------------------

	Elements           Molality       Moles

	As                6.087e-13   6.063e-13
	Cl                1.046e+00   1.042e+00
	Fe                2.332e-01   2.323e-01
	Na                1.004e-03   1.000e-03

----------------------------Description of solution----------------------------

                                       pH  =   0.594      Charge balance
                                       pe  =  14.722      Adjusted to redox equilibrium
                        Activity of water  =   0.977
                 Ionic strength (mol/kgw)  =   9.871e-01
                       Mass of water (kg)  =   9.962e-01
                 Total alkalinity (eq/kg)  =  -8.082e-01
                         Temperature (°C)  =  25.00
                  Electrical balance (eq)  =  -3.440e-03
 Percent error, 100*(Cat-|An|)/(Cat+|An|)  =  -0.22
                               Iterations  =  12
                                  Total H  = 1.109300e+02
                                  Total O  = 5.529449e+01

----------------------------Distribution of species----------------------------

                                               Log       Log       Log    mole V
   Species          Molality    Activity  Molality  Activity     Gamma   cm³/mol

   H+              3.426e-01   2.547e-01    -0.465    -0.594    -0.129      0.00
   H2O-0.01        6.962e-09   6.962e-09    -8.157    -8.157    -0.000     (0)  
   OH-             6.620e-14   3.840e-14   -13.179   -13.416    -0.237     (0)  
   H2O             5.551e+01   9.771e-01     1.744    -0.010     0.000     18.07
As(3)         3.791e-24
   H3AsO3          3.157e-24   3.962e-24   -23.501   -23.402     0.099     (0)  
   H4AsO3+         6.341e-25   5.001e-25   -24.198   -24.301    -0.103     (0)  
   H2AsO3-         1.397e-32   1.101e-32   -31.855   -31.958    -0.103     (0)  
   HAsO3-2         0.000e+00   0.000e+00   -45.652   -46.064    -0.413     (0)  
   AsO3-3          0.000e+00   0.000e+00   -60.242   -61.170    -0.928     (0)  
As(5)         6.087e-13
   H3AsO4          5.902e-13   7.408e-13   -12.229   -12.130     0.099     (0)  
   H2AsO4-         1.848e-14   1.458e-14   -13.733   -13.836    -0.103     (0)  
   HAsO4-2         1.024e-20   3.959e-21   -19.990   -20.402    -0.413     (0)  
   AsO4-3          2.950e-31   3.480e-32   -30.530   -31.458    -0.928     (0)  
Cl            1.046e+00
   Cl-             7.711e-01   4.628e-01    -0.113    -0.335    -0.222     (0)  
   FeCl+2          1.425e-01   2.419e-02    -0.846    -1.616    -0.770     (0)  
   FeCl2+          6.342e-02   5.002e-02    -1.198    -1.301    -0.103     (0)  
   FeCl3           1.844e-03   2.315e-03    -2.734    -2.635     0.099     (0)  
   FeCl+           3.422e-05   2.197e-05    -4.466    -4.658    -0.193     (0)  
Fe(2)         2.008e-04
   Fe+2            1.665e-04   3.438e-05    -3.778    -4.464    -0.685     (0)  
   FeCl+           3.422e-05   2.197e-05    -4.466    -4.658    -0.193     (0)  
   FeOH+           6.498e-14   4.171e-14   -13.187   -13.380    -0.193     (0)  
   Fe(OH)2         1.085e-24   1.362e-24   -23.965   -23.866     0.099     (0)  
   Fe(OH)3-        3.024e-34   1.941e-34   -33.519   -33.712    -0.193     (0)  
Fe(3)         2.330e-01
   FeCl+2          1.425e-01   2.419e-02    -0.846    -1.616    -0.770     (0)  
   FeCl2+          6.342e-02   5.002e-02    -1.198    -1.301    -0.103     (0)  
   Fe+3            2.492e-02   1.731e-03    -1.603    -2.762    -1.158     (0)  
   FeCl3           1.844e-03   2.315e-03    -2.734    -2.635     0.099     (0)  
   FeOH+2          2.525e-04   4.287e-05    -3.598    -4.368    -0.770     (0)  
   Fe2(OH)2+4      2.212e-06   4.947e-08    -5.655    -7.306    -1.650     (0)  
   Fe(OH)2+        8.308e-08   5.446e-08    -7.081    -7.264    -0.183     (0)  
   Fe3(OH)4+5      2.134e-10   5.629e-13    -9.671   -12.250    -2.579     (0)  
   Fe(OH)3         2.144e-14   2.691e-14   -13.669   -13.570     0.099     (0)  
   Fe(OH)4-        1.436e-22   9.415e-23   -21.843   -22.026    -0.183     (0)  
H(0)          2.633e-34
   H2              1.317e-34   1.653e-34   -33.881   -33.782     0.099     (0)  
Na            1.004e-03
   Na+             1.004e-03   7.176e-04    -2.998    -3.144    -0.146     (0)  
O(0)          2.322e-25
   O2              1.161e-25   1.457e-25   -24.935   -24.837     0.099     (0)  

------------------------------Saturation indices-------------------------------

  Phase               SI** log IAP   log K(298 K,   1 atm)

  Arsenolite      -45.39    -46.77   -1.38  As2O3
  As2O5(cr)       -32.46    -24.23    8.23  As2O5
  As_native       -56.79    -69.32  -12.53  As
  Claudetite      -45.43    -46.77   -1.34  As2O3
  Fe(OH)2.7Cl.3     1.75     -1.29   -3.04  Fe(OH)2.7Cl0.3
  Fe(OH)3(a)       -5.90     -1.01    4.89  Fe(OH)3
  Fe3(OH)8        -25.54     -5.32   20.22  Fe3(OH)8
  Fix_H+           -0.59     -0.59    0.00  H+
  Goethite          0.00     -1.00   -1.00  FeOOH
  H2(g)           -30.63    -33.78   -3.15  H2
  H2O(g)           -1.52     -0.01    1.51  H2O
  Halite           -5.06     -3.48    1.58  NaCl
  Hematite          2.02     -1.99   -4.01  Fe2O3
  Maghemite        -8.38     -1.99    6.39  Fe2O3
  Magnetite        -9.01     -5.28    3.74  Fe3O4
  O2(g)           -21.94    -24.84   -2.89  O2
  Scorodite       -13.99    -34.24  -20.25  FeAsO4:2H2O

**For a gas, SI = log10(fugacity). Fugacity = pressure * phi / 1 atm.
  For ideal gases, phi = 1.

------------------
End of simulation.
------------------

------------------------------------
Reading input data for simulation 9.
------------------------------------

	SOLUTION 1
		units  mol/kgw
		temp   25.0
		pH      1.95000
		pe      4.00000
		water   1.00000
		As(3)   1.e-4
		As(5)   1.e-4
		Cl      .001   charge
		Fe(3)   1.00000e-001
		Na      .001
	EQUILIBRIUM_PHASES 1
		Goethite	0.0	0.01
	SAVE solution 1
	END
-------------------------------------------
Beginning of initial solution calculations.
-------------------------------------------

Initial solution 1.	

-----------------------------Solution composition------------------------------

	Elements           Molality       Moles

	As(3)             1.000e-04   1.000e-04
	As(5)             1.000e-04   1.000e-04
	Cl                2.921e-01   2.921e-01  Charge balance
	Fe(3)             1.000e-01   1.000e-01
	Na                1.000e-03   1.000e-03

----------------------------Description of solution----------------------------

                                       pH  =   1.950    
                                       pe  =   4.000    
                        Activity of water  =   0.994
                 Ionic strength (mol/kgw)  =   3.999e-01
                       Mass of water (kg)  =   1.000e+00
                 Total alkalinity (eq/kg)  =  -1.912e-01
                         Temperature (°C)  =  25.00
                  Electrical balance (eq)  =   2.824e-12
 Percent error, 100*(Cat-|An|)/(Cat+|An|)  =   0.00
                               Iterations  =  15
                                  Total H  = 1.110510e+02
                                  Total O  = 5.553035e+01

---------------------------------Redox couples---------------------------------

	Redox couple             pe  Eh (volts)

	As(3)/As(5)          7.6166      0.4506

----------------------------Distribution of species----------------------------

                                               Log       Log       Log    mole V
   Species          Molality    Activity  Molality  Activity     Gamma   cm³/mol

   H+              1.453e-02   1.122e-02    -1.838    -1.950    -0.112      0.00
   H2O-0.01        9.068e-09   9.068e-09    -8.042    -8.042    -0.000     (0)  
   OH-             1.364e-12   8.871e-13   -11.865   -12.052    -0.187     (0)  
   H2O             5.551e+01   9.943e-01     1.744    -0.002     0.000     18.07
As(3)         1.000e-04
   H3AsO3          9.917e-05   1.087e-04    -4.004    -3.964     0.040     (0)  
   H4AsO3+         8.275e-07   6.045e-07    -6.082    -6.219    -0.136     (0)  
   H2AsO3-         9.392e-12   6.861e-12   -11.027   -11.164    -0.136     (0)  
   HAsO3-2         4.285e-24   1.220e-24   -23.368   -23.914    -0.546     (0)  
   AsO3-3          3.664e-37   2.170e-38   -36.436   -37.664    -1.228     (0)  
As(5)         1.000e-04
   H3AsO4          5.986e-05   6.564e-05    -4.223    -4.183     0.040     (0)  
   H2AsO4-         4.014e-05   2.932e-05    -4.396    -4.533    -0.136     (0)  
   HAsO4-2         6.349e-10   1.808e-10    -9.197    -9.743    -0.546     (0)  
   AsO4-3          6.091e-19   3.607e-20   -18.215   -19.443    -1.228     (0)  
Cl            2.921e-01
   Cl-             2.282e-01   1.505e-01    -0.642    -0.822    -0.181     (0)  
   FeCl+2          4.451e-02   1.037e-02    -1.352    -1.984    -0.633     (0)  
   FeCl2+          9.540e-03   6.969e-03    -2.020    -2.157    -0.136     (0)  
   FeCl3           9.566e-05   1.049e-04    -4.019    -3.979     0.040     (0)  
Fe(3)         1.000e-01
   FeCl+2          4.451e-02   1.037e-02    -1.352    -1.984    -0.633     (0)  
   Fe+3            2.342e-02   2.281e-03    -1.630    -2.642    -1.012     (0)  
   FeCl2+          9.540e-03   6.969e-03    -2.020    -2.157    -0.136     (0)  
   Fe2(OH)2+4      6.974e-03   4.584e-05    -2.156    -4.339    -2.182     (0)  
   FeOH+2          5.603e-03   1.305e-03    -2.252    -2.884    -0.633     (0)  
   Fe3(OH)4+5      9.423e-04   3.667e-07    -3.026    -6.436    -3.410     (0)  
   FeCl3           9.566e-05   1.049e-04    -4.019    -3.979     0.040     (0)  
   Fe(OH)2+        5.434e-05   3.829e-05    -4.265    -4.417    -0.152     (0)  
   Fe(OH)3         3.987e-10   4.372e-10    -9.399    -9.359     0.040     (0)  
   Fe(OH)4-        5.014e-17   3.533e-17   -16.300   -16.452    -0.152     (0)  
H(0)          1.626e-15
   H2              8.129e-16   8.913e-16   -15.090   -15.050     0.040     (0)  
Na            1.000e-03
   Na+             1.000e-03   7.142e-04    -3.000    -3.146    -0.146     (0)  
O(0)          0.000e+00
   O2              0.000e+00   0.000e+00   -62.325   -62.285     0.040     (0)  

------------------------------Saturation indices-------------------------------

  Phase               SI** log IAP   log K(298 K,   1 atm)

  Arsenolite       -6.54     -7.92   -1.38  As2O3
  As2O5(cr)       -16.59     -8.36    8.23  As2O5
  As_native        -9.27    -21.81  -12.53  As
  Claudetite       -6.58     -7.92   -1.34  As2O3
  Fe(OH)2.7Cl.3     5.41      2.37   -3.04  Fe(OH)2.7Cl0.3
  Fe(OH)3(a)       -1.69      3.20    4.89  Fe(OH)3
  Fix_H+           -1.95     -1.95    0.00  H+
  Goethite          4.20      3.20   -1.00  FeOOH
  H2(g)           -11.90    -15.05   -3.15  H2
  H2O(g)           -1.51     -0.00    1.51  H2O
  Halite           -5.55     -3.97    1.58  NaCl
  Hematite         10.42      6.41   -4.01  Fe2O3
  Maghemite         0.02      6.41    6.39  Fe2O3
  O2(g)           -59.39    -62.28   -2.89  O2
  Scorodite        -1.84    -22.09  -20.25  FeAsO4:2H2O

**For a gas, SI = log10(fugacity). Fugacity = pressure * phi / 1 atm.
  For ideal gases, phi = 1.

-----------------------------------------
Beginning of batch-reaction calculations.
-----------------------------------------

Reaction step 1.

Using solution 1.	
Using pure phase assemblage 1.	

-------------------------------Phase assemblage--------------------------------

                                                      Moles in assemblage
Phase               SI  log IAP  log K(T, P)   Initial       Final       Delta

Goethite          0.00    -1.00     -1.00    1.000e-02   8.844e-02   7.844e-02

-----------------------------Solution composition------------------------------

	Elements           Molality       Moles

	As                2.005e-04   2.000e-04
	Cl                2.928e-01   2.921e-01
	Fe                2.161e-02   2.156e-02
	Na                1.002e-03   1.000e-03

----------------------------Description of solution----------------------------

                                       pH  =   0.750      Charge balance
                                       pe  =  14.056      Adjusted to redox equilibrium
                        Activity of water  =   0.991
                 Ionic strength (mol/kgw)  =   3.013e-01
                       Mass of water (kg)  =   9.976e-01
                 Total alkalinity (eq/kg)  =  -2.702e-01
                         Temperature (°C)  =  25.00
                  Electrical balance (eq)  =   1.667e-10
 Percent error, 100*(Cat-|An|)/(Cat+|An|)  =   0.00
                               Iterations  =  14
                                  Total H  = 1.109725e+02
                                  Total O  = 5.537347e+01

----------------------------Distribution of species----------------------------

                                               Log       Log       Log    mole V
   Species          Molality    Activity  Molality  Activity     Gamma   cm³/mol

   H+              2.272e-01   1.777e-01    -0.644    -0.750    -0.107      0.00
   H2O-0.01        7.171e-09   7.171e-09    -8.144    -8.144    -0.000     (0)  
   OH-             8.289e-14   5.583e-14   -13.081   -13.253    -0.172     (0)  
   H2O             5.551e+01   9.911e-01     1.744    -0.004     0.000     18.07
As(3)         1.199e-14
   H3AsO3          1.062e-14   1.139e-14   -13.974   -13.944     0.030     (0)  
   H4AsO3+         1.367e-15   1.002e-15   -14.864   -14.999    -0.135     (0)  
   H2AsO3-         6.184e-23   4.536e-23   -22.209   -22.343    -0.135     (0)  
   HAsO3-2         1.760e-36   5.092e-37   -35.754   -36.293    -0.539     (0)  
   AsO3-3          0.000e+00   0.000e+00   -50.031   -51.243    -1.212     (0)  
As(5)         2.005e-04
   H3AsO4          1.925e-04   2.064e-04    -3.715    -3.685     0.030     (0)  
   H2AsO4-         7.936e-06   5.820e-06    -5.100    -5.235    -0.135     (0)  
   HAsO4-2         7.831e-12   2.266e-12   -11.106   -11.645    -0.539     (0)  
   AsO4-3          4.648e-22   2.854e-23   -21.333   -22.544    -1.212     (0)  
Cl            2.928e-01
   Cl-             2.729e-01   1.857e-01    -0.564    -0.731    -0.167     (0)  
   FeCl+2          1.244e-02   3.205e-03    -1.905    -2.494    -0.589     (0)  
   FeCl2+          3.626e-03   2.659e-03    -2.441    -2.575    -0.135     (0)  
   FeCl3           4.608e-05   4.939e-05    -4.336    -4.306     0.030     (0)  
   FeCl+           1.893e-05   1.349e-05    -4.723    -4.870    -0.147     (0)  
Fe(2)         2.005e-04
   Fe+2            1.815e-04   5.261e-05    -3.741    -4.279    -0.538     (0)  
   FeCl+           1.893e-05   1.349e-05    -4.723    -4.870    -0.147     (0)  
   FeOH+           1.302e-13   9.279e-14   -12.885   -13.032    -0.147     (0)  
   Fe(OH)2         4.109e-24   4.405e-24   -23.386   -23.356     0.030     (0)  
   Fe(OH)3-        1.281e-33   9.127e-34   -32.892   -33.040    -0.147     (0)  
Fe(3)         2.141e-02
   FeCl+2          1.244e-02   3.205e-03    -1.905    -2.494    -0.589     (0)  
   Fe+3            5.219e-03   5.714e-04    -2.282    -3.243    -0.961     (0)  
   FeCl2+          3.626e-03   2.659e-03    -2.441    -2.575    -0.135     (0)  
   FeOH+2          7.984e-05   2.057e-05    -4.098    -4.687    -0.589     (0)  
   FeCl3           4.608e-05   4.939e-05    -4.336    -4.306     0.030     (0)  
   Fe2(OH)2+4      1.625e-06   1.139e-08    -5.789    -7.943    -2.154     (0)  
   Fe(OH)2+        5.267e-08   3.799e-08    -7.278    -7.420    -0.142     (0)  
   Fe3(OH)4+5      2.101e-10   9.044e-14    -9.678   -13.044    -3.366     (0)  
   Fe(OH)3         2.547e-14   2.730e-14   -13.594   -13.564     0.030     (0)  
   Fe(OH)4-        1.925e-22   1.388e-22   -21.716   -21.857    -0.142     (0)  
H(0)          3.226e-33
   H2              1.613e-33   1.729e-33   -32.792   -32.762     0.030     (0)  
Na            1.002e-03
   Na+             1.002e-03   7.261e-04    -2.999    -3.139    -0.140     (0)  
O(0)          2.556e-27
   O2              1.278e-27   1.370e-27   -26.894   -26.863     0.030     (0)  

------------------------------Saturation indices-------------------------------

  Phase               SI** log IAP   log K(298 K,   1 atm)

  Arsenolite      -26.50    -27.88   -1.38  As2O3
  As2O5(cr)       -15.59     -7.36    8.23  As2O5
  As_native       -45.82    -58.35  -12.53  As
  Claudetite      -26.54    -27.88   -1.34  As2O3
  Fe(OH)2.7Cl.3     1.59     -1.45   -3.04  Fe(OH)2.7Cl0.3
  Fe(OH)3(a)       -5.89     -1.00    4.89  Fe(OH)3
  Fe3(OH)8        -25.02     -4.79   20.22  Fe3(OH)8
  Fix_H+           -0.75     -0.75    0.00  H+
  Goethite          0.00     -1.00   -1.00  FeOOH
  H2(g)           -29.61    -32.76   -3.15  H2
  H2O(g)           -1.51     -0.00    1.51  H2O
  Halite           -5.45     -3.87    1.58  NaCl
  Hematite          2.01     -2.00   -4.01  Fe2O3
  Maghemite        -8.38     -2.00    6.39  Fe2O3
  Magnetite        -8.52     -4.78    3.74  Fe3O4
  O2(g)           -23.97    -26.86   -2.89  O2
  Scorodite        -5.55    -25.80  -20.25  FeAsO4:2H2O

**For a gas, SI = log10(fugacity). Fugacity = pressure * phi / 1 atm.
  For ideal gases, phi = 1.

------------------
End of simulation.
------------------

-------------------------------------
Reading input data for simulation 10.
-------------------------------------

	TITLE Initial neutral form, equilibrate with solution, DONNAN
	USE solution 1
	USE equilibrium_phases 1
	SURFACE 1
		donnan
		cd_music
		Goe_triOH0.5  	Goethite       equi   1.50000e-001  53300
		capacitances           .85   .75
		Goe_uniOHH0.5  	Goethite       equi   2.00000e-001  53300
	END
-----
TITLE
-----

 Initial neutral form, equilibrate with solution, DONNAN

-----------------------------------------
Beginning of batch-reaction calculations.
-----------------------------------------

Reaction step 1.

Using solution 1.	Solution after simulation 9.
Using surface 1.	
Using pure phase assemblage 1.	

-------------------------------Phase assemblage--------------------------------

                                                      Moles in assemblage
Phase               SI  log IAP  log K(T, P)   Initial       Final       Delta

Goethite          0.00    -1.00     -1.00    1.000e-02   1.029e-02   2.910e-04

------------------------------Surface composition------------------------------

Goe           
	  3.226e-14  Surface + diffuse layer charge, eq

	  1.008e-03  Surface charge, plane 0, eq
	 -2.832e-04  Surface charge, plane 1, eq
	  0.000e+00  Surface charge, plane 2, eq
	  7.244e-04  Sum of surface charge, all planes, eq

	  1.772e-01  sigma, plane 0, C/m²
	 -4.981e-02  sigma, plane 1, C/m²
	  0.000e+00  sigma, plane 2, C/m²
	 -1.274e-01  sigma, diffuse layer, C/m²

	  4.558e-01  psi, plane 0, V
	  2.473e-01  psi, plane 1, V
	  7.737e-02  psi, plane 2, V

	  1.972e-08  exp(-F*psi/RT), plane 0
	  6.605e-05  exp(-F*psi/RT), plane 1
	  4.921e-02  exp(-F*psi/RT), plane 2

	  8.500e-01  capacitance 0-1, F/m^2
	  7.500e-01  capacitance 1-2, F/m^2
	  5.330e+04  specific area, m^2/mol Goethite
	  5.485e+02  m^2 for   1.029e-02 moles of Goethite

	Water in diffuse layer: 5.485e-03 kg, 100.0% of total DDL-water.

	Total moles in diffuse layer (excluding water), Donnan calculation.
	Donnan Layer potential, psi_DL =  5.800e-03 V.
	Boltzmann factor, exp(-psi_DL * F / RT) = 7.979e-01 (= c_DL / c_free if z is +1).

	Element       	     Moles
	As            	  8.7864e-14
	Cl            	  1.9399e-03
	Fe            	  7.3805e-05
	H             	  9.9104e-04
	Na            	  4.3681e-06
	O             	  2.8383e-07

Goe_tri       
	  1.544e-03  moles	[0.15 mol/(mol Goethite)]
	                                        Mole                     Log
	Species                    Moles    Fraction    Molality    Molality

	Goe_triOH+0.5          1.307e-03       0.847   1.311e-03      -2.883
	Goe_triO-0.5           2.362e-04       0.153   2.368e-04      -3.626
	Goe_triONa+0.5         2.834e-12       0.000   2.841e-12     -11.547

Goe_uni       
	  2.058e-03  moles	[0.2 mol/(mol Goethite)]
	                                        Mole                     Log
	Species                    Moles    Fraction    Molality    Molality

	Goe_uniOH2+0.5         1.406e-03       0.683   1.409e-03      -2.851
	Goe_uniOH-0.5          2.540e-04       0.123   2.546e-04      -3.594
	Goe_uni2O2AsO2-2       1.863e-04       0.181   1.867e-04      -3.729
	Goe_uni2O2AsOOH-       1.183e-05       0.011   1.186e-05      -4.926
	Goe_uniOAsO2OH-1.5     1.873e-06       0.001   1.877e-06      -5.727
	Goe_uniOHNa+0.5        3.048e-12       0.000   3.055e-12     -11.515
	Goe_uni2O2AsOH-        3.348e-20       0.000   3.356e-20     -19.474
	Goe_uniOAs(OH)2-0.5    5.176e-21       0.000   5.189e-21     -20.285

-----------------------------Solution composition------------------------------

	Elements           Molality       Moles

	As                1.586e-11   1.582e-11
	Cl                2.908e-01   2.901e-01
	Fe                2.125e-02   2.119e-02
	Na                9.980e-04   9.956e-04

----------------------------Description of solution----------------------------

                                       pH  =   0.752      Charge balance
                                       pe  =  14.052      Adjusted to redox equilibrium
                        Activity of water  =   0.991
                 Ionic strength (mol/kgw)  =   2.993e-01
                       Mass of water (kg)  =   9.976e-01
                 Total alkalinity (eq/kg)  =  -2.684e-01
                         Temperature (°C)  =  25.00
                  Electrical balance (eq)  =   1.667e-10
 Percent error, 100*(Cat-|An|)/(Cat+|An|)  =   0.00
                               Iterations  =   1 (15 overall)
                                  Total H  = 1.109707e+02
                                  Total O  = 5.537248e+01

----------------------------Distribution of species----------------------------

                                               Log       Log       Log    mole V
   Species          Molality    Activity  Molality  Activity     Gamma   cm³/mol

   H+              2.264e-01   1.771e-01    -0.645    -0.752    -0.107      0.00
   H2O-0.01        7.172e-09   7.172e-09    -8.144    -8.144    -0.000     (0)  
   OH-             8.311e-14   5.603e-14   -13.080   -13.252    -0.171     (0)  
   H2O             5.551e+01   9.912e-01     1.744    -0.004     0.000     18.07
As(3)         9.588e-22
   H3AsO3          8.499e-22   9.105e-22   -21.071   -21.041     0.030     (0)  
   H4AsO3+         1.089e-22   7.989e-23   -21.963   -22.097    -0.135     (0)  
   H2AsO3-         4.962e-30   3.640e-30   -29.304   -29.439    -0.135     (0)  
   HAsO3-2         0.000e+00   0.000e+00   -42.849   -43.387    -0.538     (0)  
   AsO3-3          0.000e+00   0.000e+00   -57.124   -58.335    -1.211     (0)  
As(5)         1.586e-11
   H3AsO4          1.523e-11   1.632e-11   -10.817   -10.787     0.030     (0)  
   H2AsO4-         6.295e-13   4.617e-13   -12.201   -12.336    -0.135     (0)  
   HAsO4-2         6.229e-19   1.804e-19   -18.206   -18.744    -0.538     (0)  
   AsO4-3          3.707e-29   2.280e-30   -28.431   -29.642    -1.211     (0)  
Cl            2.908e-01
[...]
-----
TITLE
-----

 Should be the same as previous simulation, DONNAN

-----------------------------------------
Beginning of batch-reaction calculations.
-----------------------------------------

Reaction step 1.

Using solution 2.	Solution after simulation 13.
Using surface 2.	
Using pure phase assemblage 2.	Pure-phase assemblage after simulation 13.

-------------------------------Phase assemblage--------------------------------

                                                      Moles in assemblage
Phase               SI  log IAP  log K(T, P)   Initial       Final       Delta

Goethite         -1.01    -2.01     -1.00    0.000e+00           0   0.000e+00

------------------------------Surface composition------------------------------

Goe           
	  0.000e+00  Surface + diffuse layer charge, eq

	  1.553e-19  Surface charge, plane 0, eq
	 -1.446e-20  Surface charge, plane 1, eq
	  0.000e+00  Surface charge, plane 2, eq
	  1.408e-19  Sum of surface charge, all planes, eq

	undefined  sigma, C/m²
	  2.423e-01  psi, plane 0, V
	  1.238e-01  psi, plane 1, V
	 -2.741e-03  psi, plane 2, V

	  8.009e-05  exp(-F*psi/RT), plane 0
	  8.091e-03  exp(-F*psi/RT), plane 1
	  1.113e+00  exp(-F*psi/RT), plane 2

	  8.500e-01  capacitance 0-1, F/m^2
	  7.500e-01  capacitance 1-2, F/m^2
	  5.330e+04  specific area, m^2/mol Goethite
	  0.000e+00  m^2 for   0.000e+00 moles of Goethite

	Water in diffuse layer: 0.000e+00 kg,  0.0% of total DDL-water.

Goe_tri       
	  0.000e+00  moles	[0.15 mol/(mol Goethite)]
	                                        Mole                     Log
	Species                    Moles    Fraction    Molality    Molality

	Goe_triOH+0.5          6.511e-20       0.000   6.525e-20     -19.185
	Goe_triO-0.5           1.500e-24       0.000   1.503e-24     -23.823
	Goe_triONa+0.5         2.172e-30       0.000   2.176e-30     -29.662

Goe_uni       
	  0.000e+00  moles	[0.2 mol/(mol Goethite)]
	                                        Mole                     Log
	Species                    Moles    Fraction    Molality    Molality

	Goe_uniOH2+0.5         8.682e-20       0.000   8.700e-20     -19.060
	Goe_uniOAsO2OH-1.5     1.112e-20       0.000   1.115e-20     -19.953
	Goe_uniOH-0.5          2.000e-24       0.000   2.004e-24     -23.698
	Goe_uniOHNa+0.5        2.896e-30       0.000   2.902e-30     -29.537
	Goe_uniOAs(OH)2-0.5    2.146e-32       0.000   2.150e-32     -31.668
	Goe_uni2O2AsOOH-       7.235e-40       0.000   7.250e-40     -39.140
	Goe_uni2O2AsO2-2       3.278e-41       0.000   3.285e-41     -40.483
	Goe_uni2O2AsOH-        4.258e-54       0.000   4.266e-54     -53.370

-----------------------------Solution composition------------------------------

	Elements           Molality       Moles

	As                9.115e-04   9.096e-04
	Cl                5.449e-01   5.438e-01
	Fe                3.172e-02   3.165e-02
	Na                1.007e-03   1.005e-03

----------------------------Description of solution----------------------------

                                       pH  =   0.466      Charge balance
                                       pe  =  13.998      Adjusted to redox equilibrium
                        Activity of water  =   0.983
                 Ionic strength (mol/kgw)  =   5.430e-01
                       Mass of water (kg)  =   9.979e-01
                 Total alkalinity (eq/kg)  =  -5.129e-01
                         Temperature (°C)  =  25.00
                  Electrical balance (eq)  =   1.667e-10
 Percent error, 100*(Cat-|An|)/(Cat+|An|)  =   0.00
                               Iterations  =   1 (3 overall)
                                  Total H  = 1.112336e+02
                                  Total O  = 5.539510e+01

----------------------------Distribution of species----------------------------

                                               Log       Log       Log    mole V
   Species          Molality    Activity  Molality  Activity     Gamma   cm³/mol

   H+              4.490e-01   3.420e-01    -0.348    -0.466    -0.118      0.00
   H2O-0.01        7.123e-09   7.122e-09    -8.147    -8.147    -0.000     (0)  
   OH-             4.598e-14   2.878e-14   -13.337   -13.541    -0.203     (0)  
   H2O             5.551e+01   9.831e-01     1.744    -0.007     0.000     18.07
As(3)         3.021e-13
   H3AsO3          2.396e-13   2.715e-13   -12.620   -12.566     0.054     (0)  
   H4AsO3+         6.253e-14   4.600e-14   -13.204   -13.337    -0.133     (0)  
   H2AsO3-         7.641e-22   5.621e-22   -21.117   -21.250    -0.133     (0)  
   HAsO3-2         1.120e-35   3.280e-36   -34.951   -35.484    -0.533     (0)  
   AsO3-3          0.000e+00   0.000e+00   -49.518   -50.718    -1.200     (0)  
As(5)         9.115e-04
   H3AsO4          8.914e-04   1.010e-03    -3.050    -2.996     0.054     (0)  
   H2AsO4-         2.012e-05   1.480e-05    -4.696    -4.830    -0.133     (0)  
   HAsO4-2         1.022e-11   2.995e-12   -10.990   -11.524    -0.533     (0)  
   AsO4-3          3.105e-22   1.961e-23   -21.508   -22.708    -1.200     (0)  
Cl            5.449e-01
   Cl-             5.099e-01   3.252e-01    -0.293    -0.488    -0.195     (0)  
   FeCl+2          1.888e-02   3.943e-03    -1.724    -2.404    -0.680     (0)  
   FeCl2+          7.786e-03   5.728e-03    -2.109    -2.242    -0.133     (0)  
   FeCl3           1.644e-04   1.863e-04    -3.784    -3.730     0.054     (0)  
   FeCl+           2.805e-05   1.896e-05    -4.552    -4.722    -0.170     (0)  
Fe(2)         2.013e-04
   Fe+2            1.733e-04   4.224e-05    -3.761    -4.374    -0.613     (0)  
   FeCl+           2.805e-05   1.896e-05    -4.552    -4.722    -0.170     (0)  
   FeOH+           5.680e-14   3.840e-14   -13.246   -13.416    -0.170     (0)  
   Fe(OH)2         8.292e-25   9.396e-25   -24.081   -24.027     0.054     (0)  
   Fe(OH)3-        1.485e-34   1.004e-34   -33.828   -33.998    -0.170     (0)  
Fe(3)         3.152e-02
   FeCl+2          1.888e-02   3.943e-03    -1.724    -2.404    -0.680     (0)  
   FeCl2+          7.786e-03   5.728e-03    -2.109    -2.242    -0.133     (0)  
   Fe+3            4.654e-03   4.015e-04    -2.332    -3.396    -1.064     (0)  
   FeCl3           1.644e-04   1.863e-04    -3.784    -3.730     0.054     (0)  
   FeOH+2          3.568e-05   7.452e-06    -4.448    -5.128    -0.680     (0)  
   Fe2(OH)2+4      2.029e-07   1.495e-09    -6.693    -8.825    -2.133     (0)  
   Fe(OH)2+        1.032e-08   7.094e-09    -7.986    -8.149    -0.163     (0)  
   Fe3(OH)4+5      4.764e-12   2.216e-15   -11.322   -14.655    -3.332     (0)  
   Fe(OH)3         2.319e-15   2.627e-15   -14.635   -14.580     0.054     (0)  
   Fe(OH)4-        1.002e-23   6.889e-24   -22.999   -23.162    -0.163     (0)  
H(0)          1.475e-32
   H2              7.375e-33   8.357e-33   -32.132   -32.078     0.054     (0)  
Na            1.007e-03
   Na+             1.007e-03   7.125e-04    -2.997    -3.147    -0.150     (0)  
O(0)          1.018e-28
   O2              5.091e-29   5.769e-29   -28.293   -28.239     0.054     (0)  

------------------------------Saturation indices-------------------------------

  Phase               SI** log IAP   log K(298 K,   1 atm)

  Arsenolite      -23.73    -25.11   -1.38  As2O3
  As2O5(cr)       -14.20     -5.97    8.23  As2O5
  As_native       -43.40    -55.94  -12.53  As
  Claudetite      -23.77    -25.11   -1.34  As2O3
  Fe(OH)2.7Cl.3     0.74     -2.30   -3.04  Fe(OH)2.7Cl0.3
  Fe(OH)3(a)       -6.91     -2.02    4.89  Fe(OH)3
  Fe3(OH)8        -27.72     -7.50   20.22  Fe3(OH)8
  Fix_H+           -0.47     -0.47    0.00  H+
  Goethite         -1.01     -2.01   -1.00  FeOOH
  H2(g)           -28.93    -32.08   -3.15  H2
  H2O(g)           -1.52     -0.01    1.51  H2O
  Halite           -5.22     -3.64    1.58  NaCl
  Hematite         -0.01     -4.02   -4.01  Fe2O3
  Maghemite       -10.40     -4.02    6.39  Fe2O3
  Magnetite       -11.21     -7.47    3.74  Fe3O4
  O2(g)           -25.35    -28.24   -2.89  O2
  Scorodite        -5.87    -26.12  -20.25  FeAsO4:2H2O

**For a gas, SI = log10(fugacity). Fugacity = pressure * phi / 1 atm.
  For ideal gases, phi = 1.

------------------
End of simulation.
------------------

-------------------------------------
Reading input data for simulation 15.
-------------------------------------

	TITLE Precipitate goethite, DONNAN
	USE solution 1
	SURFACE 1
		donnan
		cd_music
		Goe_triOH0.5      	Goethite       equi   1.50000e-001  53300
		capacitances           .85   .75
		Goe_uniOHH0.5      	Goethite       equi   2.00000e-001  53300
	        equilibrate solution 1
	EQUILIBRIUM_PHASES 1
		Goethite	0.0	0.0
	REACTION 1
		FeCl3	1.0
		0.25	moles
	END
-----
TITLE
-----

 Precipitate goethite, DONNAN

------------------------------------------------------
Beginning of initial surface-composition calculations.
------------------------------------------------------

Surface 1.	

Goe           
	  0.000e+00  Surface + diffuse layer charge, eq

	  5.633e-27  Surface charge, plane 0, eq
	 -4.776e-31  Surface charge, plane 1, eq
	  0.000e+00  Surface charge, plane 2, eq
	  5.633e-27  Sum of surface charge, all planes, eq

	undefined  sigma, C/m²
	 -0.000e+00  psi, plane 0, V
	  1.238e-01  psi, plane 1, V
	 -2.741e-03  psi, plane 2, V

	  1.000e+00  exp(-F*psi/RT), plane 0
	  8.091e-03  exp(-F*psi/RT), plane 1
	  1.113e+00  exp(-F*psi/RT), plane 2

	  8.500e-01  capacitance 0-1, F/m^2
	  7.500e-01  capacitance 1-2, F/m^2
	  5.330e+04  specific area, m^2/mol Goethite
	  0.000e+00  m^2 for   0.000e+00 moles of Goethite

	Water in diffuse layer: 0.000e+00 kg,  0.0% of total DDL-water.

Goe_tri       
	  0.000e+00  moles	[0.15 mol/(mol Goethite)]
	                                        Mole                     Log
	Species                    Moles    Fraction    Molality    Molality

	Goe_triOH+0.5          2.817e-27       0.000   2.823e-27     -26.549
	Goe_triO-0.5           1.000e-35       0.000   1.002e-35     -34.999
	Goe_triONa+0.5         1.476e-41       0.000   1.479e-41     -40.830

Goe_uni       
	  0.000e+00  moles	[0.2 mol/(mol Goethite)]
	                                        Mole                     Log
	Species                    Moles    Fraction    Molality    Molality

	Goe_uniOH2+0.5         2.817e-27       0.000   2.823e-27     -26.549
	Goe_uniOAsO2OH-1.5     3.674e-31       0.000   3.683e-31     -30.434
	Goe_uniOH-0.5          1.000e-35       0.000   1.002e-35     -34.999
	Goe_uniOHNa+0.5        1.476e-41       0.000   1.479e-41     -40.830
	Goe_uniOAs(OH)2-0.5    2.018e-44       0.000   2.023e-44     -43.694
	Goe_uni2O2AsOOH-       8.641e-61       0.000   8.662e-61     -60.062
	Goe_uni2O2AsO2-2       2.669e-62       0.000   2.676e-62     -61.573
	Goe_uni2O2AsOH-        1.085e-76       0.000   1.088e-76     -75.964

-----------------------------------------
Beginning of batch-reaction calculations.
-----------------------------------------

Reaction step 1.

Using solution 1.	Solution after simulation 9.
Using surface 1.	
Using pure phase assemblage 1.	
Using reaction 1.	

Reaction 1.	

	  2.500e-01 moles of the following reaction have been added:

	                 Relative
	Reactant            moles

	FeCl3                1.00000

	                 Relative
	Element             moles
	Cl                   3.00000
	Fe                   1.00000

-------------------------------Phase assemblage--------------------------------

                                                      Moles in assemblage
Phase               SI  log IAP  log K(T, P)   Initial       Final       Delta

Goethite          0.00    -1.00     -1.00    0.000e+00   4.146e-02   4.146e-02

------------------------------Surface composition------------------------------

Goe           
	 -7.269e-13  Surface + diffuse layer charge, eq

	  3.940e-03  Surface charge, plane 0, eq
	 -2.880e-04  Surface charge, plane 1, eq
	  0.000e+00  Surface charge, plane 2, eq
	  3.652e-03  Sum of surface charge, all planes, eq

	  1.720e-01  sigma, plane 0, C/m²
	 -1.257e-02  sigma, plane 1, C/m²
	  0.000e+00  sigma, plane 2, C/m²
	 -1.594e-01  sigma, diffuse layer, C/m²

	  4.756e-01  psi, plane 0, V
	  2.732e-01  psi, plane 1, V
	  6.060e-02  psi, plane 2, V

	  9.139e-09  exp(-F*psi/RT), plane 0
	  2.409e-05  exp(-F*psi/RT), plane 1
	  9.453e-02  exp(-F*psi/RT), plane 2

	  8.500e-01  capacitance 0-1, F/m^2
	  7.500e-01  capacitance 1-2, F/m^2
	  5.330e+04  specific area, m^2/mol Goethite
	  2.210e+03  m^2 for   4.146e-02 moles of Goethite

	Water in diffuse layer: 2.210e-02 kg, 100.0% of total DDL-water.

	Total moles in diffuse layer (excluding water), Donnan calculation.
	Donnan Layer potential, psi_DL =  2.255e-03 V.
	Boltzmann factor, exp(-psi_DL * F / RT) = 9.160e-01 (= c_DL / c_free if z is +1).

	Element       	     Moles
	As            	  1.2849e-14
	Cl            	  2.3412e-02
	Fe            	  4.2754e-03
	H             	  6.9274e-03
	Na            	  1.9917e-05
	O             	  4.7187e-06

Goe_tri       
	  6.219e-03  moles	[0.15 mol/(mol Goethite)]
	                                        Mole                     Log
	Species                    Moles    Fraction    Molality    Molality

	Goe_triOH+0.5          4.892e-03       0.787   4.911e-03      -2.309
	Goe_triO-0.5           1.327e-03       0.213   1.332e-03      -2.875
	Goe_triONa+0.5         5.644e-12       0.000   5.666e-12     -11.247

Goe_uni       
	  8.292e-03  moles	[0.2 mol/(mol Goethite)]
	                                        Mole                     Log
	Species                    Moles    Fraction    Molality    Molality

	Goe_uniOH2+0.5         6.209e-03       0.749   6.233e-03      -2.205
	Goe_uniOH-0.5          1.685e-03       0.203   1.691e-03      -2.772
	Goe_uni2O2AsO2-2       1.923e-04       0.046   1.931e-04      -3.714
	Goe_uni2O2AsOOH-       6.570e-06       0.002   6.596e-06      -5.181
	Goe_uniOAsO2OH-1.5     1.112e-06       0.000   1.116e-06      -5.952
	Goe_uniOHNa+0.5        7.163e-12       0.000   7.191e-12     -11.143
	Goe_uni2O2AsOH-        1.654e-21       0.000   1.660e-21     -20.780
	Goe_uniOAs(OH)2-0.5    1.467e-22       0.000   1.473e-22     -21.832

-----------------------------Solution composition------------------------------

	Elements           Molality       Moles

	As                5.798e-13   5.775e-13
	Cl                1.023e+00   1.019e+00
	Fe                2.267e-01   2.258e-01
	Na                9.839e-04   9.801e-04

----------------------------Description of solution----------------------------

                                       pH  =   0.594      Charge balance
                                       pe  =  14.725      Adjusted to redox equilibrium
                        Activity of water  =   0.977
                 Ionic strength (mol/kgw)  =   9.694e-01
                       Mass of water (kg)  =   9.961e-01
                 Total alkalinity (eq/kg)  =  -7.948e-01
                         Temperature (°C)  =  25.00
                  Electrical balance (eq)  =   1.667e-10
 Percent error, 100*(Cat-|An|)/(Cat+|An|)  =   0.00
                               Iterations  =   1 (14 overall)
                                  Total H  = 1.109207e+02
                                  Total O  = 5.529014e+01

----------------------------Distribution of species----------------------------

                                               Log       Log       Log    mole V
   Species          Molality    Activity  Molality  Activity     Gamma   cm³/mol

   H+              3.420e-01   2.545e-01    -0.466    -0.594    -0.128      0.00
   H2O-0.01        6.964e-09   6.964e-09    -8.157    -8.157    -0.000     (0)  
   OH-             6.614e-14   3.846e-14   -13.180   -13.415    -0.236     (0)  
   H2O             5.551e+01   9.775e-01     1.744    -0.010     0.000     18.07
As(3)         3.548e-24
   H3AsO3          2.955e-24   3.694e-24   -23.529   -23.433     0.097     (0)  
   H4AsO3+         5.927e-25   4.657e-25   -24.227   -24.332    -0.105     (0)  
   H2AsO3-         1.308e-32   1.028e-32   -31.883   -31.988    -0.105     (0)  
   HAsO3-2         0.000e+00   0.000e+00   -45.675   -46.094    -0.419     (0)  
   AsO3-3          0.000e+00   0.000e+00   -60.257   -61.199    -0.942     (0)  
As(5)         5.798e-13
   H3AsO4          5.622e-13   7.028e-13   -12.250   -12.153     0.097     (0)  
   H2AsO4-         1.762e-14   1.384e-14   -13.754   -13.859    -0.105     (0)  
   HAsO4-2         9.872e-21   3.764e-21   -20.006   -20.424    -0.419     (0)  
   AsO4-3          2.900e-31   3.311e-32   -30.538   -31.480    -0.942     (0)  
Cl            1.023e+00
   Cl-             7.563e-01   4.547e-01    -0.121    -0.342    -0.221     (0)  
   FeCl+2          1.386e-01   2.368e-02    -0.858    -1.626    -0.768     (0)  
   FeCl2+          6.120e-02   4.809e-02    -1.213    -1.318    -0.105     (0)  
   FeCl3           1.749e-03   2.187e-03    -2.757    -2.660     0.097     (0)  
   FeCl+           3.319e-05   2.134e-05    -4.479    -4.671    -0.192     (0)  
Fe(2)         1.971e-04
   Fe+2            1.639e-04   3.399e-05    -3.786    -4.469    -0.683     (0)  
   FeCl+           3.319e-05   2.134e-05    -4.479    -4.671    -0.192     (0)  
   FeOH+           6.424e-14   4.130e-14   -13.192   -13.384    -0.192     (0)  
   Fe(OH)2         1.080e-24   1.350e-24   -23.967   -23.870     0.097     (0)  
   Fe(OH)3-        2.997e-34   1.927e-34   -33.523   -33.715    -0.192     (0)  
Fe(3)         2.265e-01
   FeCl+2          1.386e-01   2.368e-02    -0.858    -1.626    -0.768     (0)  
   FeCl2+          6.120e-02   4.809e-02    -1.213    -1.318    -0.105     (0)  
   Fe+3            2.468e-02   1.724e-03    -1.608    -2.763    -1.156     (0)  
   FeCl3           1.749e-03   2.187e-03    -2.757    -2.660     0.097     (0)  
   FeOH+2          2.504e-04   4.277e-05    -3.601    -4.369    -0.768     (0)  
   Fe2(OH)2+4      2.331e-06   4.923e-08    -5.632    -7.308    -1.675     (0)  
   Fe(OH)2+        8.288e-08   5.440e-08    -7.082    -7.264    -0.183     (0)  
   Fe3(OH)4+5      2.320e-10   5.596e-13    -9.635   -12.252    -2.618     (0)  
   Fe(OH)3         2.154e-14   2.692e-14   -13.667   -13.570     0.097     (0)  
   Fe(OH)4-        1.437e-22   9.432e-23   -21.843   -22.025    -0.183     (0)  
H(0)          2.599e-34
   H2              1.300e-34   1.625e-34   -33.886   -33.789     0.097     (0)  
Na            9.839e-04
   Na+             9.839e-04   7.026e-04    -3.007    -3.153    -0.146     (0)  
O(0)          2.414e-25
   O2              1.207e-25   1.509e-25   -24.918   -24.821     0.097     (0)  

------------------------------Saturation indices-------------------------------

  Phase               SI** log IAP   log K(298 K,   1 atm)

  Arsenolite      -45.46    -46.84   -1.38  As2O3
  As2O5(cr)       -32.50    -24.28    8.23  As2O5
  As_native       -56.83    -69.36  -12.53  As
  Claudetite      -45.50    -46.84   -1.34  As2O3
  Fe(OH)2.7Cl.3     1.75     -1.29   -3.04  Fe(OH)2.7Cl0.3
  Fe(OH)3(a)       -5.90     -1.01    4.89  Fe(OH)3
  Fe3(OH)8        -25.54     -5.32   20.22  Fe3(OH)8
  Fix_H+           -0.59     -0.59    0.00  H+
  Goethite          0.00     -1.00   -1.00  FeOOH
  H2(g)           -30.64    -33.79   -3.15  H2
  H2O(g)           -1.52     -0.01    1.51  H2O
  Halite           -5.08     -3.50    1.58  NaCl
  Hematite          2.02     -1.99   -4.01  Fe2O3
  Maghemite        -8.38     -1.99    6.39  Fe2O3
  Magnetite        -9.02     -5.28    3.74  Fe3O4
  O2(g)           -21.93    -24.82   -2.89  O2
  Scorodite       -14.01    -34.26  -20.25  FeAsO4:2H2O

**For a gas, SI = log10(fugacity). Fugacity = pressure * phi / 1 atm.
  For ideal gases, phi = 1.

------------------
End of simulation.
------------------

-------------------------------------
Reading input data for simulation 16.
-------------------------------------

-------------------------------
End of Run after 0.055 Seconds.
-------------------------------

