WARNING: Database file from DATABASE keyword is used; command line argument ignored.
   Input file: ch4-valid
  Output file: ch4-valid.out
Database file: ../database/phreeqc.dat

------------------
Reading data base.
------------------

	SOLUTION_MASTER_SPECIES
	SOLUTION_SPECIES
	PHASES
	EXCHANGE_MASTER_SPECIES
	EXCHANGE_SPECIES
	SURFACE_MASTER_SPECIES
	SURFACE_SPECIES
	RATES
	END
------------------------------------
Reading input data for simulation 1.
------------------------------------

	DATABASE ../database/phreeqc.dat
	SOLUTION 1 pure water
	EQUILIBRIUM_PHASES
	CH4(g) 1 0.014
	SAVE solution 11
	END
-------------------------------------------
Beginning of initial solution calculations.
-------------------------------------------

Initial solution 1.	pure water

-----------------------------Solution composition------------------------------

	Elements           Molality       Moles

	Pure water     

----------------------------Description of solution----------------------------

                                       pH  =   7.000    
                                       pe  =   4.000    
       Specific Conductance (uS/cm, 25 oC) = 0
                          Density (g/cm3)  =   0.99704
                               Volume (L)  =   1.00297
                        Activity of water  =   1.000
                           Ionic strength  =   1.007e-07
                       Mass of water (kg)  =   1.000e+00
                 Total alkalinity (eq/kg)  =   1.217e-09
                    Total carbon (mol/kg)  =   0.000e+00
                       Total CO2 (mol/kg)  =   0.000e+00
                      Temperature (deg C)  =  25.00
                  Electrical balance (eq)  =  -1.217e-09
 Percent error, 100*(Cat-|An|)/(Cat+|An|)  =  -0.60
                               Iterations  =   0
                                  Total H  = 1.110124e+02
                                  Total O  = 5.550622e+01

----------------------------Distribution of species----------------------------

                                               Log       Log       Log    mole V
   Species          Molality    Activity  Molality  Activity     Gamma   cm3/mol

   OH-             1.013e-07   1.012e-07    -6.995    -6.995    -0.000     -4.14
   H+              1.001e-07   1.000e-07    -7.000    -7.000    -0.000      0.00
   H2O             5.551e+01   1.000e+00     1.744     0.000     0.000     18.07
H(0)          1.416e-25
   H2              7.079e-26   7.079e-26   -25.150   -25.150     0.000     28.61
O(0)          0.000e+00
   O2              0.000e+00   0.000e+00   -42.080   -42.080     0.000     30.40

------------------------------Saturation indices-------------------------------

  Phase               SI** log IAP   log K(298 K,   1 atm)

  H2(g)           -22.05    -25.15   -3.10  H2
  H2O(g)           -1.50      0.00    1.50  H2O
  O2(g)           -39.19    -42.08   -2.89  O2

**For a gas, SI = log10(fugacity). Fugacity = pressure * phi / 1 atm.
  For ideal gases, phi = 1.

-----------------------------------------
Beginning of batch-reaction calculations.
-----------------------------------------

Reaction step 1.

Using solution 1.	pure water
Using pure phase assemblage 1.	

-------------------------------Phase assemblage--------------------------------

                                                      Moles in assemblage
Phase               SI  log IAP  log K(T, P)   Initial       Final       Delta

CH4(g)            0.99    -1.85     -2.84    1.400e-02           0  -1.400e-02

-----------------------------Solution composition------------------------------

	Elements           Molality       Moles

	C                 1.400e-02   1.400e-02

----------------------------Description of solution----------------------------

                                       pH  =   6.986      Charge balance
                                       pe  =  -4.810      Adjusted to redox equilibrium
       Specific Conductance (uS/cm, 25 oC) = 0
                          Density (g/cm3)  =   0.99682
                               Volume (L)  =   1.00411
                        Activity of water  =   1.000
                           Ionic strength  =   1.039e-07
                       Mass of water (kg)  =   1.000e+00
                 Total alkalinity (eq/kg)  =   1.217e-09
                       Total CO2 (mol/kg)  =   7.844e-09
                      Temperature (deg C)  =  25.00
                  Electrical balance (eq)  =  -1.217e-09
 Percent error, 100*(Cat-|An|)/(Cat+|An|)  =  -0.59
                               Iterations  =  15
                                  Total H  = 1.110684e+02
                                  Total O  = 5.550622e+01

----------------------------Distribution of species----------------------------

                                               Log       Log       Log    mole V
   Species          Molality    Activity  Molality  Activity     Gamma   cm3/mol

   H+              1.032e-07   1.032e-07    -6.986    -6.986    -0.000      0.00
   OH-             9.809e-08   9.805e-08    -7.008    -7.009    -0.000     -4.14
   H2O             5.551e+01   9.998e-01     1.744    -0.000     0.000     18.07
C(-4)         1.400e-02
   CH4             1.400e-02   1.400e-02    -1.854    -1.854     0.000     32.22
C(4)          7.844e-09
   HCO3-           6.364e-09   6.362e-09    -8.196    -8.196    -0.000     24.65
   CO2             1.477e-09   1.477e-09    -8.831    -8.831     0.000     29.09
   CO3-2           2.895e-12   2.891e-12   -11.538   -11.539    -0.001     -5.39
H(0)          6.275e-08
   H2              3.138e-08   3.138e-08    -7.503    -7.503     0.000     28.61
O(0)          0.000e+00
   O2              0.000e+00   0.000e+00   -77.373   -77.373     0.000     30.40

------------------------------Saturation indices-------------------------------

  Phase               SI** log IAP   log K(298 K,   1 atm)

  CH4(g)            0.99     -1.85   -2.84  CH4
  CO2(g)           -7.37     -8.83   -1.46  CO2
  H2(g)            -4.40     -7.50   -3.10  H2
  H2O(g)           -1.50     -0.00    1.50  H2O
  O2(g)           -74.48    -77.37   -2.89  O2

**For a gas, SI = log10(fugacity). Fugacity = pressure * phi / 1 atm.
  For ideal gases, phi = 1.

------------------
End of simulation.
------------------

------------------------------------
Reading input data for simulation 2.
------------------------------------

	USE solution 11
	GAS_PHASE
	fixed_pressure
	pressure 1.013
	temperature 25
	CH4(g) 0
-----------------------------------------
Beginning of batch-reaction calculations.
-----------------------------------------

Reaction step 1.

Using solution 11.	Solution after simulation 1.
Using gas phase 1.	

-----------------------------------Gas phase-----------------------------------

Total pressure:  1.01      atmospheres          (Peng-Robinson calculation)
    Gas volume:   3.02e-01 liters
  Molar volume:   2.41e+01 liters/mole
   P * Vm / RT:  0.99771  (Compressibility Factor Z) 

                                                        Moles in gas
                                            ----------------------------------
Component         log P           P    phi     Initial       Final       Delta

CH4(g)             0.01   1.013e+00  0.998   0.000e+00   1.255e-02   1.255e-02

-----------------------------Solution composition------------------------------

	Elements           Molality       Moles

	C                 1.451e-03   1.451e-03

----------------------------Description of solution----------------------------

                                       pH  =   6.991      Charge balance
                                       pe  =  -4.717      Adjusted to redox equilibrium
       Specific Conductance (uS/cm, 25 oC) = 0
                          Density (g/cm3)  =   0.99702
                               Volume (L)  =   1.00308
                        Activity of water  =   1.000
                           Ionic strength  =   1.027e-07
                       Mass of water (kg)  =   1.000e+00
                 Total alkalinity (eq/kg)  =   1.217e-09
                       Total CO2 (mol/kg)  =   4.995e-09
                      Temperature (deg C)  =  25.00
                           Pressure (atm)  =  1.01
                  Electrical balance (eq)  =  -1.217e-09
 Percent error, 100*(Cat-|An|)/(Cat+|An|)  =  -0.59
                               Iterations  =  14
                                  Total H  = 1.110182e+02
                                  Total O  = 5.550622e+01

----------------------------Distribution of species----------------------------

                                               Log       Log       Log    mole V
   Species          Molality    Activity  Molality  Activity     Gamma   cm3/mol

   H+              1.021e-07   1.020e-07    -6.991    -6.991    -0.000      0.00
   OH-             9.923e-08   9.919e-08    -7.003    -7.004    -0.000     -4.14
   H2O             5.551e+01   1.000e+00     1.744    -0.000     0.000     18.07
C(-4)         1.451e-03
   CH4             1.451e-03   1.451e-03    -2.838    -2.838     0.000     32.22
C(4)          4.995e-09
   HCO3-           4.061e-09   4.060e-09    -8.391    -8.392    -0.000     24.65
   CO2             9.314e-10   9.314e-10    -9.031    -9.031     0.000     29.09
   CO3-2           1.869e-12   1.866e-12   -11.728   -11.729    -0.001     -5.39
H(0)          3.996e-08
   H2              1.998e-08   1.998e-08    -7.699    -7.699     0.000     28.61
O(0)          0.000e+00
   O2              0.000e+00   0.000e+00   -76.981   -76.981     0.000     30.40

------------------------------Saturation indices-------------------------------

  Phase               SI** log IAP   log K(298 K,   1 atm)

  CH4(g)            0.00     -2.84   -2.84  CH4	 Pressure   1.0 atm, phi 0.998
  CO2(g)           -7.57     -9.03   -1.46  CO2
  H2(g)            -4.60     -7.70   -3.10  H2
  H2O(g)           -1.50     -0.00    1.50  H2O
  O2(g)           -74.09    -76.98   -2.89  O2

**For a gas, SI = log10(fugacity). Fugacity = pressure * phi / 1 atm.
  For ideal gases, phi = 1.

------------------
End of simulation.
------------------

------------------------------------
Reading input data for simulation 3.
------------------------------------

------------------------------
End of Run after 0.02 Seconds.
------------------------------

