   Input file: CH4_conc_PR_IS
  Output file: CH4_conc_PR_IS.out
Database file: ../database/phreeqc.dat

------------------
Reading data base.
------------------

	SOLUTION_MASTER_SPECIES
	SOLUTION_SPECIES
	PHASES
	EXCHANGE_MASTER_SPECIES
	EXCHANGE_SPECIES
	SURFACE_MASTER_SPECIES
	SURFACE_SPECIES
	RATES
	END
------------------------------------
Reading input data for simulation 1.
------------------------------------

	DATABASE ../database/phreeqc.dat
	SOLUTION_SPECIES
	Na+ = Na+
		gamma	4.0	0.075
		dw	 1.33e-9
		millero -3.46 0.1092 -0.000768 2.698 -0.106 0.001651
		vm -2.15 0.0193 2.23e-4  6.2e-3 0.015 -2.74e-4  -0.9e-3  0.35 # NaCl.xls, Laliberte, 2009. Halite solubility
	Cl- = Cl-
		gamma	3.5	0.015
		dw	 2.03e-9
		millero 16.37 0.0896 -0.001264 -1.494 0.034 -0.000621
		vm 16.26 0.104 -1.25e-3  0.467 -0.027 2.95e-4  -1e-3  0.04 # 0-100 oC, HCl.xls, Laliberte, 2009. Halite solubility
	SO4-2 = SO4-2
		gamma	5.0	-0.04
		dw	 1.07e-9
		millero 9.26 0.284 -0.003808 0.4348 -0.0099143 -8.4762e-05
		vm 9.55 0.297 -3e-3  2.06 -0.08 7.08e-4  -9e-3  0.017 # Na2SO4.xls, Laliberte, 2009; Phulela and Pitzer, 1986; Gypsum/Anhydrite solubility.  0-200 oC, 1-1000 atm.
	CO3-2 + 2 H+ = CO2 + H2O
		log_k	16.681
		delta_h -5.738	kcal
		analytical_expression	464.1965	0.09344813	-26986.16	-165.75951	2248628.9
		dw	 1.92e-9
		vm   26.5 -0.066   0  0 0 0 -9.7E-03 # Data in Duan et al., 2006, MC 98, 131. 1-100 oC, 1-700 atm.
	2 H2O = O2 + 4 H+ + 4 e-
		log_k	-86.08
		delta_h 134.79 kcal
		dw	 2.35e-9
		vm 35 # Pray et al., 1952, IEC 44. 1146
	2 H+ + 2 e- = H2
		log_k	-3.15
		delta_h -1.759 kcal
		dw	 5.13e-9
		vm 20 # Pray et al., 1952, IEC 44. 1146
	CO3-2 + 10 H+ + 8 e- = CH4 + 3 H2O
		log_k	41.071
		delta_h -61.039 kcal
		dw	 1.85e-9
		vm 33
	PHASES
	CO2(g)
		CO2 = CO2
		log_k	-1.468
		delta_h -4.776 kcal
		analytical_expression	108.3865	0.01985076	-6919.53	-40.45154	669365.0
		t_c  304.2 # critical T, K
		p_c   72.80 # critical P, atm
		omega 0.225 #  acentric factor
	O2(g)
		O2 = O2
		log_k   -2.8983
		analytical_expression -7.5001 7.8981e-003 0.0 0.0 2.0027e+005
		T_c  154.6 # critical T, K
		p_c   49.80 # critical P, atm
		omega 0.021 #  acentric factor
	H2(g)
		H2 = H2
		log_k	   -3.1050
		delta_h -4.184  kJ
		analytical_expression   -9.3114e+000    4.6473e-003   -4.9335e+001    1.4341e+000    1.2815e+005
		t_c  33.2 # critical T, K
		p_c   12.80 # critical P, atm
		omega 0.225 #  acentric factor
	CH4(g)
		CH4 = CH4
		log_k	   -2.8502
		analytical_expression -2.4027e+001 4.7146e-003 3.7227e+002 6.4264e+000 2.3362e+005
		T_c  190.6 # critical T, K
		p_c   45.40 # critical P, atm
		omega 0.008 #  acentric factor
	Mirabilite
		Na2SO4:10H2O  =  SO4-2 + 2 Na+ + 10 H2O
		log_k	   -1.214
		analytical_expression       -3862.234   -1.19856    93713.54    1577.756    0.
		vm  216.2
	H2O(g)
		H2O = H2O
		log_k  1.506
	 delta_h -44.03 kJ
		T_c  647.3 # critical T, K
		p_c  217.60 # critical P, atm
		omega 0.344 #  acentric factor
		analytical_expression   -16.5066 -2.0013E-3  2710.7  3.7646  0 2.24E-6
	SOLUTION 1
	SOLUTION_SPECIES
	CO3-2 + 10 H+ + 8 e- = CH4 + 3 H2O
		log_k	41.071
		delta_h -61.039 kcal
		dw	 1.85e-9
		vm 33
	PHASES
	CH4(g)
		CH4 = CH4
		log_k	   -2.8502
		analytical_expression -2.4027e+001 4.7146e-003 3.7227e+002 6.4264e+000 2.3362e+005
		T_c  190.6 # critical T, K
		p_c   45.40 # critical P, atm
		omega 0.008 # Pitzer acentric factor
	SELECTED_OUTPUT
	 reset false
	 file ch4_25.prn
	USER_PUNCH
	  1 sc$ = chr$(59)
	 10 for i = 1.1 to 820 step 20
	 20   punch 'SOLUTION 1' + sc$ + ' -temp 25' + sc$ + ' pH 3 charge' + EOL$ + 'C(-4) 1 CH4(g) ' + str$(log10(i)) + EOL$ + '-pressure ' + str$(i) + EOL$ + 'END' + EOL$
	 30 next i
	END
-------------------------------------------
Beginning of initial solution calculations.
-------------------------------------------

Initial solution 1.	

WARNING: USER_PUNCH: Headings count doesn't match number of calls to PUNCH.

-----------------------------Solution composition------------------------------

	Elements           Molality       Moles

	Pure water     

----------------------------Description of solution----------------------------

                                       pH  =   7.000    
                                       pe  =   4.000    
       Specific Conductance (uS/cm, 25 oC) = 0
                          Density (g/cm3)  =   0.99709
                        Activity of water  =   1.000
                           Ionic strength  =   1.001e-07
                       Mass of water (kg)  =   1.000e+00
                 Total alkalinity (eq/kg)  =   1.082e-10
                    Total carbon (mol/kg)  =   0.000e+00
                       Total CO2 (mol/kg)  =   0.000e+00
                      Temperature (deg C)  =  25.00
                  Electrical balance (eq)  =  -1.082e-10
 Percent error, 100*(Cat-|An|)/(Cat+|An|)  =  -0.05
                               Iterations  =   0
                                  Total H  = 1.110124e+02
                                  Total O  = 5.550622e+01

----------------------------Distribution of species----------------------------

                                            Log       Log         Log     mole V
   Species          Molality    Activity  Molality  Activity     Gamma   cm3/mol

   OH-             1.002e-07   1.001e-07    -6.999    -6.999    -0.000     (0)  
   H+              1.001e-07   1.000e-07    -7.000    -7.000    -0.000      0.00
   H2O             5.551e+01   1.000e+00     1.744     0.000     0.000     18.07
H(0)          1.416e-25
   H2              7.079e-26   7.079e-26   -25.150   -25.150     0.000     20.00
O(0)          0.000e+00
   O2              0.000e+00   0.000e+00   -42.080   -42.080     0.000     35.00

------------------------------Saturation indices-------------------------------

	Phase               SI   log IAP   log K(298 K,   1 atm)

	H2(g)           -22.05    -25.15   -3.10  H2
	H2O(g)           -1.50      0.00    1.50  H2O
	O2(g)           -39.19    -42.08   -2.89  O2


------------------
End of simulation.
------------------

------------------------------------
Reading input data for simulation 2.
------------------------------------

	SELECTED_OUTPUT
	 selected_out false
	USER_GRAPH
	 -plot_csv_file CH4_25C.dat
	 -axis_titles "Pressure / atm" "CH4 / (mol/kgw)"
	 -axis_scale x_axis 0 800
	 -axis_scale y_axis 0 0.4
	 -initial_solutions true
	 10 x = PR_P("CH4(g)")
	 20 graph_x x # tot("Na")
	 30 graph_y tot("C(-4)")
	 -end
	SOLUTION 1
	 temp 25
	 pH 3 charge
	C(-4) 1 CH4(g)   4.1393e-02
	pressure   1.1000e+00
	END
-------------------------------------------
Beginning of initial solution calculations.
-------------------------------------------

Initial solution 1.	

-----------------------------Solution composition------------------------------

	Elements           Molality       Moles

	C(-4)             1.575e-03   1.575e-03  Equilibrium with CH4(g)

----------------------------Description of solution----------------------------

                                       pH  =   7.000      Charge balance
                                       pe  =   4.000    
       Specific Conductance (uS/cm, 25 oC) = 0
                          Density (g/cm3)  =   0.99709
                        Activity of water  =   1.000
                           Ionic strength  =   1.001e-07
                       Mass of water (kg)  =   1.000e+00
                 Total alkalinity (eq/kg)  =  -3.752e-19
                    Total carbon (mol/kg)  =   1.575e-03
                       Total CO2 (mol/kg)  =   0.000e+00
                      Temperature (deg C)  =  25.00
                           Pressure (atm)  =  1.10
                  Electrical balance (eq)  =   3.752e-19
 Percent error, 100*(Cat-|An|)/(Cat+|An|)  =   0.00
                               Iterations  =  13
                                  Total H  = 1.110187e+02
                                  Total O  = 5.550622e+01

----------------------------Distribution of species----------------------------

                                            Log       Log         Log     mole V
   Species          Molality    Activity  Molality  Activity     Gamma   cm3/mol

   H+              1.001e-07   1.001e-07    -7.000    -7.000    -0.000      0.00
   OH-             1.001e-07   1.001e-07    -7.000    -7.000    -0.000     (0)  
   H2O             5.551e+01   1.000e+00     1.744    -0.000     0.000     18.07
C(-4)         1.575e-03
   CH4             1.575e-03   1.575e-03    -2.803    -2.803     0.000     33.00
H(0)          1.417e-25
   H2              7.086e-26   7.086e-26   -25.150   -25.150     0.000     20.00
O(0)          0.000e+00
   O2              0.000e+00   0.000e+00   -42.081   -42.081     0.000     35.00

------------------------------Saturation indices-------------------------------

	Phase               SI   log IAP   log K(298 K,   1 atm)

	CH4(g)            0.04     -2.80   -2.84  CH4	 Pressure   1.1 atm, phi 0.998.
	H2(g)           -22.05    -25.15   -3.10  H2
	H2O(g)           -1.50     -0.00    1.50  H2O
	O2(g)           -39.19    -42.08   -2.89  O2


------------------
End of simulation.
------------------

------------------------------------
Reading input data for simulation 3.
------------------------------------

		SOLUTION 1
	 temp 25
	 pH 3 charge
	C(-4) 1 CH4(g)   1.3243e+00
	pressure   2.1100e+01
	END
-------------------------------------------
Beginning of initial solution calculations.
-------------------------------------------

Initial solution 1.	

-----------------------------Solution composition------------------------------

	Elements           Molality       Moles

	C(-4)             2.813e-02   2.813e-02  Equilibrium with CH4(g)

----------------------------Description of solution----------------------------

                                       pH  =   7.000      Charge balance
                                       pe  =   4.000    
       Specific Conductance (uS/cm, 25 oC) = 0
                          Density (g/cm3)  =   0.99801
                        Activity of water  =   1.000
                           Ionic strength  =   1.001e-07
                       Mass of water (kg)  =   1.000e+00
                 Total alkalinity (eq/kg)  =   1.485e-18
                    Total carbon (mol/kg)  =   2.813e-02
                       Total CO2 (mol/kg)  =   0.000e+00
                      Temperature (deg C)  =  25.00
                           Pressure (atm)  = 21.10
                  Electrical balance (eq)  =  -1.485e-18
 Percent error, 100*(Cat-|An|)/(Cat+|An|)  =  -0.00
                               Iterations  =  13
                                  Total H  = 1.111250e+02
                                  Total O  = 5.550622e+01

----------------------------Distribution of species----------------------------

                                            Log       Log         Log     mole V
   Species          Molality    Activity  Molality  Activity     Gamma   cm3/mol

   OH-             1.001e-07   1.000e-07    -7.000    -7.000    -0.000     (0)  
   H+              1.001e-07   1.000e-07    -7.000    -7.000    -0.000      0.00
   H2O             5.551e+01   9.995e-01     1.744    -0.000     0.000     18.05
C(-4)         2.813e-02
   CH4             2.813e-02   2.813e-02    -1.551    -1.551     0.000     33.00
H(0)          1.394e-25
   H2              6.968e-26   6.968e-26   -25.157   -25.157     0.000     20.00
O(0)          0.000e+00
   O2              0.000e+00   0.000e+00   -42.081   -42.081     0.000     35.00

------------------------------Saturation indices-------------------------------

	Phase               SI   log IAP   log K(298 K,  21 atm)

	CH4(g)            1.30     -1.55   -2.85  CH4	 Pressure  21.1 atm, phi 0.954.
	H2(g)           -22.06    -25.16   -3.10  H2
	H2O(g)           -1.50     -0.00    1.50  H2O
	O2(g)           -39.18    -42.08   -2.91  O2


------------------
End of simulation.
------------------

------------------------------------
Reading input data for simulation 4.
------------------------------------

		SOLUTION 1
	 temp 25
	 pH 3 charge
	C(-4) 1 CH4(g)   1.6138e+00
	pressure   4.1100e+01
	END
-------------------------------------------
Beginning of initial solution calculations.
-------------------------------------------

Initial solution 1.	

-----------------------------Solution composition------------------------------

	Elements           Molality       Moles

	C(-4)             5.110e-02   5.110e-02  Equilibrium with CH4(g)

----------------------------Description of solution----------------------------

                                       pH  =   7.000      Charge balance
                                       pe  =   4.000    
       Specific Conductance (uS/cm, 25 oC) = 0
                          Density (g/cm3)  =   0.99893
                        Activity of water  =   0.999
                           Ionic strength  =   1.000e-07
                       Mass of water (kg)  =   1.000e+00
                 Total alkalinity (eq/kg)  =   2.947e-17
                    Total carbon (mol/kg)  =   5.110e-02
                       Total CO2 (mol/kg)  =   0.000e+00
                      Temperature (deg C)  =  25.00
                           Pressure (atm)  = 41.10
                  Electrical balance (eq)  =  -2.947e-17
 Percent error, 100*(Cat-|An|)/(Cat+|An|)  =  -0.00
                               Iterations  =  13
                                  Total H  = 1.112169e+02
                                  Total O  = 5.550622e+01

----------------------------Distribution of species----------------------------

                                            Log       Log         Log     mole V
   Species          Molality    Activity  Molality  Activity     Gamma   cm3/mol

   OH-             1.000e-07   1.000e-07    -7.000    -7.000    -0.000     (0)  
   H+              1.000e-07   1.000e-07    -7.000    -7.000    -0.000      0.00
   H2O             5.551e+01   9.991e-01     1.744    -0.000     0.000     18.04
C(-4)         5.110e-02
   CH4             5.110e-02   5.110e-02    -1.292    -1.292     0.000     33.00
H(0)          1.371e-25
   H2              6.853e-26   6.853e-26   -25.164   -25.164     0.000     20.00
O(0)          0.000e+00
   O2              0.000e+00   0.000e+00   -42.080   -42.080     0.000     35.00

------------------------------Saturation indices-------------------------------

	Phase               SI   log IAP   log K(298 K,  41 atm)

	CH4(g)            1.57     -1.29   -2.87  CH4	 Pressure  41.1 atm, phi 0.914.
	H2(g)           -22.06    -25.16   -3.10  H2
	H2O(g)           -1.49     -0.00    1.49  H2O
	O2(g)           -39.16    -42.08   -2.92  O2


------------------
End of simulation.
------------------

------------------------------------
Reading input data for simulation 5.
------------------------------------

		SOLUTION 1
	 temp 25
	 pH 3 charge
	C(-4) 1 CH4(g)   1.7860e+00
	pressure   6.1100e+01
	END
-------------------------------------------
Beginning of initial solution calculations.
-------------------------------------------

Initial solution 1.	

-----------------------------Solution composition------------------------------

	Elements           Molality       Moles

	C(-4)             7.100e-02   7.100e-02  Equilibrium with CH4(g)

----------------------------Description of solution----------------------------

                                       pH  =   7.000      Charge balance
                                       pe  =   4.000    
       Specific Conductance (uS/cm, 25 oC) = 0
                          Density (g/cm3)  =   0.99985
                        Activity of water  =   0.999
                           Ionic strength  =   1.000e-07
                       Mass of water (kg)  =   1.000e+00
                 Total alkalinity (eq/kg)  =   7.377e-17
                    Total carbon (mol/kg)  =   7.100e-02
                       Total CO2 (mol/kg)  =   0.000e+00
                      Temperature (deg C)  =  25.00
                           Pressure (atm)  = 61.10
                  Electrical balance (eq)  =  -7.377e-17
 Percent error, 100*(Cat-|An|)/(Cat+|An|)  =  -0.00
                               Iterations  =  13
                                  Total H  = 1.112964e+02
                                  Total O  = 5.550622e+01

----------------------------Distribution of species----------------------------

                                            Log       Log         Log     mole V
   Species          Molality    Activity  Molality  Activity     Gamma   cm3/mol

   OH-             1.000e-07   9.999e-08    -7.000    -7.000    -0.000     (0)  
   H+              1.000e-07   9.999e-08    -7.000    -7.000    -0.000      0.00
   H2O             5.551e+01   9.988e-01     1.744    -0.001     0.000     18.02
C(-4)         7.100e-02
   CH4             7.100e-02   7.100e-02    -1.149    -1.149     0.000     33.00
H(0)          1.348e-25
   H2              6.739e-26   6.739e-26   -25.171   -25.171     0.000     20.00
O(0)          0.000e+00
   O2              0.000e+00   0.000e+00   -42.080   -42.080     0.000     35.00

------------------------------Saturation indices-------------------------------

	Phase               SI   log IAP   log K(298 K,  61 atm)

	CH4(g)            1.73     -1.15   -2.88  CH4	 Pressure  61.1 atm, phi 0.878.
	H2(g)           -22.07    -25.17   -3.10  H2
	H2O(g)           -1.48     -0.00    1.48  H2O
	O2(g)           -39.15    -42.08   -2.93  O2


------------------
End of simulation.
------------------

------------------------------------
Reading input data for simulation 6.
------------------------------------

		SOLUTION 1
	 temp 25
	 pH 3 charge
	C(-4) 1 CH4(g)   1.9090e+00
	pressure   8.1100e+01
	END
-------------------------------------------
Beginning of initial solution calculations.
-------------------------------------------

Initial solution 1.	

-----------------------------Solution composition------------------------------

	Elements           Molality       Moles

	C(-4)             8.828e-02   8.828e-02  Equilibrium with CH4(g)

----------------------------Description of solution----------------------------

                                       pH  =   7.000      Charge balance
                                       pe  =   4.000    
       Specific Conductance (uS/cm, 25 oC) = 0
                          Density (g/cm3)  =   1.00077
                        Activity of water  =   0.998
                           Ionic strength  =   1.000e-07
                       Mass of water (kg)  =   1.000e+00
                 Total alkalinity (eq/kg)  =  -1.636e-20
                    Total carbon (mol/kg)  =   8.828e-02
                       Total CO2 (mol/kg)  =   0.000e+00
                      Temperature (deg C)  =  25.00
                           Pressure (atm)  = 81.10
                  Electrical balance (eq)  =   1.636e-20
 Percent error, 100*(Cat-|An|)/(Cat+|An|)  =   0.00
                               Iterations  =  14
                                  Total H  = 1.113655e+02
                                  Total O  = 5.550622e+01

----------------------------Distribution of species----------------------------

                                            Log       Log         Log     mole V
   Species          Molality    Activity  Molality  Activity     Gamma   cm3/mol

   H+              1.000e-07   9.998e-08    -7.000    -7.000    -0.000      0.00
   OH-             1.000e-07   9.998e-08    -7.000    -7.000    -0.000     (0)  
   H2O             5.551e+01   9.985e-01     1.744    -0.001     0.000     18.00
C(-4)         8.828e-02
   CH4             8.828e-02   8.828e-02    -1.054    -1.054     0.000     33.00
H(0)          1.326e-25
   H2              6.628e-26   6.628e-26   -25.179   -25.179     0.000     20.00
O(0)          0.000e+00
   O2              0.000e+00   0.000e+00   -42.080   -42.080     0.000     35.00

------------------------------Saturation indices-------------------------------

	Phase               SI   log IAP   log K(298 K,  81 atm)

	CH4(g)            1.84     -1.05   -2.89  CH4	 Pressure  81.1 atm, phi 0.845.
	H2(g)           -22.08    -25.18   -3.10  H2
	H2O(g)           -1.48     -0.00    1.48  H2O
	O2(g)           -39.14    -42.08   -2.94  O2


------------------
End of simulation.
------------------

------------------------------------
Reading input data for simulation 7.
------------------------------------

		SOLUTION 1
	 temp 25
	 pH 3 charge
	C(-4) 1 CH4(g)   2.0048e+00
	pressure   1.0110e+02
	END
-------------------------------------------
Beginning of initial solution calculations.
-------------------------------------------

Initial solution 1.	

-----------------------------Solution composition------------------------------

	Elements           Molality       Moles

	C(-4)             1.034e-01   1.034e-01  Equilibrium with CH4(g)

----------------------------Description of solution----------------------------

                                       pH  =   7.000      Charge balance
                                       pe  =   4.000    
       Specific Conductance (uS/cm, 25 oC) = 0
                          Density (g/cm3)  =   1.00169
                        Activity of water  =   0.998
                           Ionic strength  =   1.000e-07
                       Mass of water (kg)  =   1.000e+00
                 Total alkalinity (eq/kg)  =  -1.779e-20
                    Total carbon (mol/kg)  =   1.034e-01
                       Total CO2 (mol/kg)  =   0.000e+00
                      Temperature (deg C)  =  25.00
                           Pressure (atm)  = 101.10
                  Electrical balance (eq)  =   1.779e-20
 Percent error, 100*(Cat-|An|)/(Cat+|An|)  =   0.00
                               Iterations  =  14
                                  Total H  = 1.114259e+02
                                  Total O  = 5.550622e+01

----------------------------Distribution of species----------------------------

                                            Log       Log         Log     mole V
   Species          Molality    Activity  Molality  Activity     Gamma   cm3/mol

   H+              1.000e-07   9.997e-08    -7.000    -7.000    -0.000      0.00
   OH-             1.000e-07   9.997e-08    -7.000    -7.000    -0.000     (0)  
   H2O             5.551e+01   9.982e-01     1.744    -0.001     0.000     17.99
C(-4)         1.034e-01
   CH4             1.034e-01   1.034e-01    -0.986    -0.986     0.000     33.00
H(0)          1.304e-25
   H2              6.519e-26   6.519e-26   -25.186   -25.186     0.000     20.00
O(0)          0.000e+00
   O2              0.000e+00   0.000e+00   -42.079   -42.079     0.000     35.00

------------------------------Saturation indices-------------------------------

	Phase               SI   log IAP   log K(298 K, 101 atm)

	CH4(g)            1.92     -0.99   -2.90  CH4	 Pressure 101.1 atm, phi 0.815.
	H2(g)           -22.08    -25.19   -3.10  H2
	H2O(g)           -1.47     -0.00    1.47  H2O
	O2(g)           -39.12    -42.08   -2.96  O2


------------------
End of simulation.
------------------

------------------------------------
Reading input data for simulation 8.
------------------------------------

		SOLUTION 1
	 temp 25
	 pH 3 charge
	C(-4) 1 CH4(g)   2.0831e+00
	pressure   1.2110e+02
	END
-------------------------------------------
Beginning of initial solution calculations.
-------------------------------------------

Initial solution 1.	

-----------------------------Solution composition------------------------------

	Elements           Molality       Moles

	C(-4)             1.166e-01   1.166e-01  Equilibrium with CH4(g)

----------------------------Description of solution----------------------------

                                       pH  =   7.000      Charge balance
                                       pe  =   4.000    
       Specific Conductance (uS/cm, 25 oC) = 0
                          Density (g/cm3)  =   1.00261
                        Activity of water  =   0.998
                           Ionic strength  =   9.999e-08
                       Mass of water (kg)  =   1.000e+00
                 Total alkalinity (eq/kg)  =   3.970e-22
                    Total carbon (mol/kg)  =   1.166e-01
                       Total CO2 (mol/kg)  =   0.000e+00
                      Temperature (deg C)  =  25.00
                           Pressure (atm)  = 121.10
                  Electrical balance (eq)  =  -3.970e-22
 Percent error, 100*(Cat-|An|)/(Cat+|An|)  =  -0.00
                               Iterations  =  38
                                  Total H  = 1.114789e+02
                                  Total O  = 5.550622e+01

----------------------------Distribution of species----------------------------

                                            Log       Log         Log     mole V
   Species          Molality    Activity  Molality  Activity     Gamma   cm3/mol

   OH-             9.999e-08   9.995e-08    -7.000    -7.000    -0.000     (0)  
   H+              9.999e-08   9.995e-08    -7.000    -7.000    -0.000      0.00
   H2O             5.551e+01   9.980e-01     1.744    -0.001     0.000     17.97
C(-4)         1.166e-01
   CH4             1.166e-01   1.166e-01    -0.933    -0.933     0.000     33.00
H(0)          1.282e-25
   H2              6.412e-26   6.412e-26   -25.193   -25.193     0.000     20.00
O(0)          0.000e+00
   O2              0.000e+00   0.000e+00   -42.079   -42.079     0.000     35.00

------------------------------Saturation indices-------------------------------

	Phase               SI   log IAP   log K(298 K, 121 atm)

	CH4(g)            1.98     -0.93   -2.91  CH4	 Pressure 121.1 atm, phi 0.789.
	H2(g)           -22.09    -25.19   -3.10  H2
	H2O(g)           -1.47     -0.00    1.46  H2O
	O2(g)           -39.11    -42.08   -2.97  O2


------------------
End of simulation.
------------------

------------------------------------
Reading input data for simulation 9.
------------------------------------

		SOLUTION 1
	 temp 25
	 pH 3 charge
	C(-4) 1 CH4(g)   2.1495e+00
	pressure   1.4110e+02
	END
-------------------------------------------
Beginning of initial solution calculations.
-------------------------------------------

Initial solution 1.	

-----------------------------Solution composition------------------------------

	Elements           Molality       Moles

	C(-4)             1.284e-01   1.284e-01  Equilibrium with CH4(g)

----------------------------Description of solution----------------------------

                                       pH  =   7.000      Charge balance
                                       pe  =   4.000    
       Specific Conductance (uS/cm, 25 oC) = 0
                          Density (g/cm3)  =   1.00353
                        Activity of water  =   0.998
                           Ionic strength  =   9.998e-08
                       Mass of water (kg)  =   1.000e+00
                 Total alkalinity (eq/kg)  =   4.103e-22
                    Total carbon (mol/kg)  =   1.284e-01
                       Total CO2 (mol/kg)  =   0.000e+00
                      Temperature (deg C)  =  25.00
                           Pressure (atm)  = 141.10
                  Electrical balance (eq)  =  -4.103e-22
 Percent error, 100*(Cat-|An|)/(Cat+|An|)  =  -0.00
                               Iterations  =  38
                                  Total H  = 1.115259e+02
                                  Total O  = 5.550622e+01

----------------------------Distribution of species----------------------------

                                            Log       Log         Log     mole V
   Species          Molality    Activity  Molality  Activity     Gamma   cm3/mol

   OH-             9.998e-08   9.994e-08    -7.000    -7.000    -0.000     (0)  
   H+              9.998e-08   9.994e-08    -7.000    -7.000    -0.000      0.00
   H2O             5.551e+01   9.978e-01     1.744    -0.001     0.000     17.95
C(-4)         1.284e-01
   CH4             1.284e-01   1.284e-01    -0.892    -0.892     0.000     33.00
H(0)          1.261e-25
   H2              6.306e-26   6.306e-26   -25.200   -25.200     0.000     20.00
O(0)          0.000e+00
   O2              0.000e+00   0.000e+00   -42.079   -42.079     0.000     35.00

------------------------------Saturation indices-------------------------------

	Phase               SI   log IAP   log K(298 K, 141 atm)

	CH4(g)            2.03     -0.89   -2.93  CH4	 Pressure 141.1 atm, phi 0.766.
	H2(g)           -22.10    -25.20   -3.10  H2
	H2O(g)           -1.46     -0.00    1.46  H2O
	O2(g)           -39.10    -42.08   -2.98  O2


------------------
End of simulation.
------------------

-------------------------------------
Reading input data for simulation 10.
-------------------------------------

		SOLUTION 1
	 temp 25
	 pH 3 charge
	C(-4) 1 CH4(g)   2.2071e+00
	pressure   1.6110e+02
	END
-------------------------------------------
Beginning of initial solution calculations.
-------------------------------------------

Initial solution 1.	

-----------------------------Solution composition------------------------------

	Elements           Molality       Moles

	C(-4)             1.389e-01   1.389e-01  Equilibrium with CH4(g)

----------------------------Description of solution----------------------------

                                       pH  =   7.000      Charge balance
                                       pe  =   4.000    
       Specific Conductance (uS/cm, 25 oC) = 0
                          Density (g/cm3)  =   1.00445
                        Activity of water  =   0.998
                           Ionic strength  =   9.997e-08
                       Mass of water (kg)  =   1.000e+00
                 Total alkalinity (eq/kg)  =   4.103e-22
                    Total carbon (mol/kg)  =   1.389e-01
                       Total CO2 (mol/kg)  =   0.000e+00
                      Temperature (deg C)  =  25.00
                           Pressure (atm)  = 161.10
                  Electrical balance (eq)  =  -4.103e-22
 Percent error, 100*(Cat-|An|)/(Cat+|An|)  =  -0.00
                               Iterations  =  38
                                  Total H  = 1.115681e+02
                                  Total O  = 5.550622e+01

----------------------------Distribution of species----------------------------

                                            Log       Log         Log     mole V
   Species          Molality    Activity  Molality  Activity     Gamma   cm3/mol

   OH-             9.997e-08   9.994e-08    -7.000    -7.000    -0.000     (0)  
   H+              9.997e-08   9.994e-08    -7.000    -7.000    -0.000      0.00
   H2O             5.551e+01   9.976e-01     1.744    -0.001     0.000     17.94
C(-4)         1.389e-01
   CH4             1.389e-01   1.389e-01    -0.857    -0.857     0.000     33.00
H(0)          1.241e-25
   H2              6.203e-26   6.203e-26   -25.207   -25.207     0.000     20.00
O(0)          0.000e+00
   O2              0.000e+00   0.000e+00   -42.078   -42.078     0.000     35.00

------------------------------Saturation indices-------------------------------

	Phase               SI   log IAP   log K(298 K, 161 atm)

	CH4(g)            2.08     -0.86   -2.94  CH4	 Pressure 161.1 atm, phi 0.745.
	H2(g)           -22.11    -25.21   -3.10  H2
	H2O(g)           -1.45     -0.00    1.45  H2O
	O2(g)           -39.08    -42.08   -2.99  O2


------------------
End of simulation.
------------------

-------------------------------------
Reading input data for simulation 11.
-------------------------------------

		SOLUTION 1
	 temp 25
	 pH 3 charge
	C(-4) 1 CH4(g)   2.2579e+00
	pressure   1.8110e+02
	END
-------------------------------------------
Beginning of initial solution calculations.
-------------------------------------------

Initial solution 1.	

-----------------------------Solution composition------------------------------

	Elements           Molality       Moles

	C(-4)             1.485e-01   1.485e-01  Equilibrium with CH4(g)

----------------------------Description of solution----------------------------

                                       pH  =   7.000      Charge balance
                                       pe  =   4.000    
       Specific Conductance (uS/cm, 25 oC) = 0
                          Density (g/cm3)  =   1.00537
                        Activity of water  =   0.997
                           Ionic strength  =   9.996e-08
                       Mass of water (kg)  =   1.000e+00
                 Total alkalinity (eq/kg)  =   4.103e-22
                    Total carbon (mol/kg)  =   1.485e-01
                       Total CO2 (mol/kg)  =   0.000e+00
                      Temperature (deg C)  =  25.00
                           Pressure (atm)  = 181.10
                  Electrical balance (eq)  =  -4.103e-22
 Percent error, 100*(Cat-|An|)/(Cat+|An|)  =  -0.00
                               Iterations  =  38
                                  Total H  = 1.116063e+02
                                  Total O  = 5.550622e+01

----------------------------Distribution of species----------------------------

                                            Log       Log         Log     mole V
   Species          Molality    Activity  Molality  Activity     Gamma   cm3/mol

   OH-             9.996e-08   9.993e-08    -7.000    -7.000    -0.000     (0)  
   H+              9.996e-08   9.993e-08    -7.000    -7.000    -0.000      0.00
   H2O             5.551e+01   9.975e-01     1.744    -0.001     0.000     17.92
C(-4)         1.485e-01
   CH4             1.485e-01   1.485e-01    -0.828    -0.828     0.000     33.00
H(0)          1.220e-25
   H2              6.101e-26   6.101e-26   -25.215   -25.215     0.000     20.00
O(0)          0.000e+00
   O2              0.000e+00   0.000e+00   -42.078   -42.078     0.000     35.00

------------------------------Saturation indices-------------------------------

	Phase               SI   log IAP   log K(298 K, 181 atm)

	CH4(g)            2.12     -0.83   -2.95  CH4	 Pressure 181.1 atm, phi 0.728.
	H2(g)           -22.11    -25.21   -3.10  H2
	H2O(g)           -1.45     -0.00    1.45  H2O
	O2(g)           -39.07    -42.08   -3.01  O2


------------------
End of simulation.
------------------

-------------------------------------
Reading input data for simulation 12.
-------------------------------------

		SOLUTION 1
	 temp 25
	 pH 3 charge
	C(-4) 1 CH4(g)   2.3034e+00
	pressure   2.0110e+02
	END
-------------------------------------------
Beginning of initial solution calculations.
-------------------------------------------

Initial solution 1.	

-----------------------------Solution composition------------------------------

	Elements           Molality       Moles

	C(-4)             1.572e-01   1.572e-01  Equilibrium with CH4(g)

----------------------------Description of solution----------------------------

                                       pH  =   7.000      Charge balance
                                       pe  =   4.000    
       Specific Conductance (uS/cm, 25 oC) = 0
                          Density (g/cm3)  =   1.00629
                        Activity of water  =   0.997
                           Ionic strength  =   9.996e-08
                       Mass of water (kg)  =   1.000e+00
                 Total alkalinity (eq/kg)  =  -1.985e-22
                    Total carbon (mol/kg)  =   1.572e-01
                       Total CO2 (mol/kg)  =   0.000e+00
                      Temperature (deg C)  =  25.00
                           Pressure (atm)  = 201.10
                  Electrical balance (eq)  =   1.985e-22
 Percent error, 100*(Cat-|An|)/(Cat+|An|)  =   0.00
                               Iterations  =  38
                                  Total H  = 1.116412e+02
                                  Total O  = 5.550622e+01

----------------------------Distribution of species----------------------------

                                            Log       Log         Log     mole V
   Species          Molality    Activity  Molality  Activity     Gamma   cm3/mol

   H+              9.996e-08   9.992e-08    -7.000    -7.000    -0.000      0.00
   OH-             9.996e-08   9.992e-08    -7.000    -7.000    -0.000     (0)  
   H2O             5.551e+01   9.973e-01     1.744    -0.001     0.000     17.90
C(-4)         1.572e-01
   CH4             1.572e-01   1.572e-01    -0.804    -0.804     0.000     33.00
H(0)          1.200e-25
   H2              6.002e-26   6.002e-26   -25.222   -25.222     0.000     20.00
O(0)          0.000e+00
   O2              0.000e+00   0.000e+00   -42.078   -42.078     0.000     35.00

------------------------------Saturation indices-------------------------------

	Phase               SI   log IAP   log K(298 K, 201 atm)

	CH4(g)            2.16     -0.80   -2.96  CH4	 Pressure 201.1 atm, phi 0.713.
	H2(g)           -22.12    -25.22   -3.10  H2
	H2O(g)           -1.44     -0.00    1.44  H2O
	O2(g)           -39.06    -42.08   -3.02  O2


------------------
End of simulation.
------------------

-------------------------------------
Reading input data for simulation 13.
-------------------------------------

		SOLUTION 1
	 temp 25
	 pH 3 charge
	C(-4) 1 CH4(g)   2.3446e+00
	pressure   2.2110e+02
	END
-------------------------------------------
Beginning of initial solution calculations.
-------------------------------------------

Initial solution 1.	

-----------------------------Solution composition------------------------------

	Elements           Molality       Moles

	C(-4)             1.653e-01   1.653e-01  Equilibrium with CH4(g)

----------------------------Description of solution----------------------------

                                       pH  =   7.000      Charge balance
                                       pe  =   4.000    
       Specific Conductance (uS/cm, 25 oC) = 0
                          Density (g/cm3)  =   1.00721
                        Activity of water  =   0.997
                           Ionic strength  =   9.995e-08
                       Mass of water (kg)  =   1.000e+00
                 Total alkalinity (eq/kg)  =   0.000e+00
                    Total carbon (mol/kg)  =   1.653e-01
                       Total CO2 (mol/kg)  =   0.000e+00
                      Temperature (deg C)  =  25.00
                           Pressure (atm)  = 221.10
                  Electrical balance (eq)  =   0.000e+00
 Percent error, 100*(Cat-|An|)/(Cat+|An|)  =   0.00
                               Iterations  =  38
                                  Total H  = 1.116735e+02
                                  Total O  = 5.550622e+01

----------------------------Distribution of species----------------------------

                                            Log       Log         Log     mole V
   Species          Molality    Activity  Molality  Activity     Gamma   cm3/mol

   H+              9.995e-08   9.991e-08    -7.000    -7.000    -0.000      0.00
   OH-             9.995e-08   9.991e-08    -7.000    -7.000    -0.000     (0)  
   H2O             5.551e+01   9.972e-01     1.744    -0.001     0.000     17.89
C(-4)         1.653e-01
   CH4             1.653e-01   1.653e-01    -0.782    -0.782     0.000     33.00
H(0)          1.181e-25
   H2              5.903e-26   5.903e-26   -25.229   -25.229     0.000     20.00
O(0)          0.000e+00
   O2              0.000e+00   0.000e+00   -42.078   -42.078     0.000     35.00

------------------------------Saturation indices-------------------------------

	Phase               SI   log IAP   log K(298 K, 221 atm)

	CH4(g)            2.19     -0.78   -2.97  CH4	 Pressure 221.1 atm, phi 0.701.
	H2(g)           -22.13    -25.23   -3.10  H2
	H2O(g)           -1.43     -0.00    1.43  H2O
	O2(g)           -39.05    -42.08   -3.03  O2


------------------
End of simulation.
------------------

-------------------------------------
Reading input data for simulation 14.
-------------------------------------

		SOLUTION 1
	 temp 25
	 pH 3 charge
	C(-4) 1 CH4(g)   2.3822e+00
	pressure   2.4110e+02
	END
-------------------------------------------
Beginning of initial solution calculations.
-------------------------------------------

Initial solution 1.	

-----------------------------Solution composition------------------------------

	Elements           Molality       Moles

	C(-4)             1.728e-01   1.728e-01  Equilibrium with CH4(g)

----------------------------Description of solution----------------------------

                                       pH  =   7.000      Charge balance
                                       pe  =   4.000    
       Specific Conductance (uS/cm, 25 oC) = 0
                          Density (g/cm3)  =   1.00813
                        Activity of water  =   0.997
                           Ionic strength  =   9.994e-08
                       Mass of water (kg)  =   1.000e+00
                 Total alkalinity (eq/kg)  =   0.000e+00
                    Total carbon (mol/kg)  =   1.728e-01
                       Total CO2 (mol/kg)  =   0.000e+00
                      Temperature (deg C)  =  25.00
                           Pressure (atm)  = 241.10
                  Electrical balance (eq)  =   0.000e+00
 Percent error, 100*(Cat-|An|)/(Cat+|An|)  =   0.00
                               Iterations  =  38
                                  Total H  = 1.117035e+02
                                  Total O  = 5.550622e+01

----------------------------Distribution of species----------------------------

                                            Log       Log         Log     mole V
   Species          Molality    Activity  Molality  Activity     Gamma   cm3/mol

   H+              9.994e-08   9.991e-08    -7.000    -7.000    -0.000      0.00
   OH-             9.994e-08   9.991e-08    -7.000    -7.000    -0.000     (0)  
   H2O             5.551e+01   9.971e-01     1.744    -0.001     0.000     17.87
C(-4)         1.728e-01
   CH4             1.728e-01   1.728e-01    -0.763    -0.763     0.000     33.00
H(0)          1.161e-25
   H2              5.807e-26   5.807e-26   -25.236   -25.236     0.000     20.00
O(0)          0.000e+00
   O2              0.000e+00   0.000e+00   -42.078   -42.078     0.000     35.00

------------------------------Saturation indices-------------------------------

	Phase               SI   log IAP   log K(298 K, 241 atm)

	CH4(g)            2.22     -0.76   -2.98  CH4	 Pressure 241.1 atm, phi 0.690.
	H2(g)           -22.13    -25.24   -3.10  H2
	H2O(g)           -1.43     -0.00    1.43  H2O
	O2(g)           -39.03    -42.08   -3.04  O2


------------------
End of simulation.
------------------

-------------------------------------
Reading input data for simulation 15.
-------------------------------------

		SOLUTION 1
	 temp 25
	 pH 3 charge
	C(-4) 1 CH4(g)   2.4168e+00
	pressure   2.6110e+02
	END
-------------------------------------------
Beginning of initial solution calculations.
-------------------------------------------

Initial solution 1.	

-----------------------------Solution composition------------------------------

	Elements           Molality       Moles

	C(-4)             1.798e-01   1.798e-01  Equilibrium with CH4(g)

----------------------------Description of solution----------------------------

                                       pH  =   7.000      Charge balance
                                       pe  =   4.000    
       Specific Conductance (uS/cm, 25 oC) = 0
                          Density (g/cm3)  =   1.00905
                        Activity of water  =   0.997
                           Ionic strength  =   9.994e-08
                       Mass of water (kg)  =   1.000e+00
                 Total alkalinity (eq/kg)  =   6.088e-22
                    Total carbon (mol/kg)  =   1.798e-01
                       Total CO2 (mol/kg)  =   0.000e+00
                      Temperature (deg C)  =  25.00
                           Pressure (atm)  = 261.10
                  Electrical balance (eq)  =  -6.088e-22
 Percent error, 100*(Cat-|An|)/(Cat+|An|)  =  -0.00
                               Iterations  =  38
                                  Total H  = 1.117316e+02
                                  Total O  = 5.550622e+01

----------------------------Distribution of species----------------------------

                                            Log       Log         Log     mole V
   Species          Molality    Activity  Molality  Activity     Gamma   cm3/mol

   OH-             9.994e-08   9.990e-08    -7.000    -7.000    -0.000     (0)  
   H+              9.994e-08   9.990e-08    -7.000    -7.000    -0.000      0.00
   H2O             5.551e+01   9.969e-01     1.744    -0.001     0.000     17.85
C(-4)         1.798e-01
   CH4             1.798e-01   1.798e-01    -0.745    -0.745     0.000     33.00
H(0)          1.142e-25
   H2              5.712e-26   5.712e-26   -25.243   -25.243     0.000     20.00
O(0)          0.000e+00
   O2              0.000e+00   0.000e+00   -42.078   -42.078     0.000     35.00

------------------------------Saturation indices-------------------------------

	Phase               SI   log IAP   log K(298 K, 261 atm)

	CH4(g)            2.25     -0.75   -3.00  CH4	 Pressure 261.1 atm, phi 0.681.
	H2(g)           -22.14    -25.24   -3.10  H2
	H2O(g)           -1.42     -0.00    1.42  H2O
	O2(g)           -39.02    -42.08   -3.06  O2


------------------
End of simulation.
------------------

-------------------------------------
Reading input data for simulation 16.
-------------------------------------

		SOLUTION 1
	 temp 25
	 pH 3 charge
	C(-4) 1 CH4(g)   2.4489e+00
	pressure   2.8110e+02
	END
-------------------------------------------
Beginning of initial solution calculations.
-------------------------------------------

Initial solution 1.	

-----------------------------Solution composition------------------------------

	Elements           Molality       Moles

	C(-4)             1.864e-01   1.864e-01  Equilibrium with CH4(g)

----------------------------Description of solution----------------------------

                                       pH  =   7.000      Charge balance
                                       pe  =   4.000    
       Specific Conductance (uS/cm, 25 oC) = 0
                          Density (g/cm3)  =   1.00997
                        Activity of water  =   0.997
                           Ionic strength  =   9.993e-08
                       Mass of water (kg)  =   1.000e+00
                 Total alkalinity (eq/kg)  =   0.000e+00
                    Total carbon (mol/kg)  =   1.864e-01
                       Total CO2 (mol/kg)  =   0.000e+00
                      Temperature (deg C)  =  25.00
                           Pressure (atm)  = 281.10
                  Electrical balance (eq)  =   0.000e+00
 Percent error, 100*(Cat-|An|)/(Cat+|An|)  =   0.00
                               Iterations  =  38
                                  Total H  = 1.117581e+02
                                  Total O  = 5.550622e+01

----------------------------Distribution of species----------------------------

                                            Log       Log         Log     mole V
   Species          Molality    Activity  Molality  Activity     Gamma   cm3/mol

   H+              9.993e-08   9.990e-08    -7.000    -7.000    -0.000      0.00
   OH-             9.993e-08   9.990e-08    -7.000    -7.000    -0.000     (0)  
   H2O             5.551e+01   9.968e-01     1.744    -0.001     0.000     17.84
C(-4)         1.864e-01
   CH4             1.864e-01   1.864e-01    -0.729    -0.729     0.000     33.00
H(0)          1.124e-25
   H2              5.619e-26   5.619e-26   -25.250   -25.250     0.000     20.00
O(0)          0.000e+00
   O2              0.000e+00   0.000e+00   -42.078   -42.078     0.000     35.00

------------------------------Saturation indices-------------------------------

	Phase               SI   log IAP   log K(298 K, 281 atm)

	CH4(g)            2.28     -0.73   -3.01  CH4	 Pressure 281.1 atm, phi 0.674.
	H2(g)           -22.15    -25.25   -3.10  H2
	H2O(g)           -1.42     -0.00    1.41  H2O
	O2(g)           -39.01    -42.08   -3.07  O2


------------------
End of simulation.
------------------

-------------------------------------
Reading input data for simulation 17.
-------------------------------------

		SOLUTION 1
	 temp 25
	 pH 3 charge
	C(-4) 1 CH4(g)   2.4787e+00
	pressure   3.0110e+02
	END
-------------------------------------------
Beginning of initial solution calculations.
-------------------------------------------

Initial solution 1.	

-----------------------------Solution composition------------------------------

	Elements           Molality       Moles

	C(-4)             1.927e-01   1.927e-01  Equilibrium with CH4(g)

----------------------------Description of solution----------------------------

                                       pH  =   7.000      Charge balance
                                       pe  =   4.000    
       Specific Conductance (uS/cm, 25 oC) = 0
                          Density (g/cm3)  =   1.01089
                        Activity of water  =   0.997
                           Ionic strength  =   9.993e-08
                       Mass of water (kg)  =   1.000e+00
                 Total alkalinity (eq/kg)  =   1.985e-22
                    Total carbon (mol/kg)  =   1.927e-01
                       Total CO2 (mol/kg)  =   0.000e+00
                      Temperature (deg C)  =  25.00
                           Pressure (atm)  = 301.10
                  Electrical balance (eq)  =  -1.985e-22
 Percent error, 100*(Cat-|An|)/(Cat+|An|)  =  -0.00
                               Iterations  =  38
                                  Total H  = 1.117832e+02
                                  Total O  = 5.550622e+01

----------------------------Distribution of species----------------------------

                                            Log       Log         Log     mole V
   Species          Molality    Activity  Molality  Activity     Gamma   cm3/mol

   OH-             9.993e-08   9.989e-08    -7.000    -7.000    -0.000     (0)  
   H+              9.993e-08   9.989e-08    -7.000    -7.000    -0.000      0.00
   H2O             5.551e+01   9.967e-01     1.744    -0.001     0.000     17.82
C(-4)         1.927e-01
   CH4             1.927e-01   1.927e-01    -0.715    -0.715     0.000     33.00
H(0)          1.105e-25
   H2              5.527e-26   5.527e-26   -25.257   -25.257     0.000     20.00
O(0)          0.000e+00
   O2              0.000e+00   0.000e+00   -42.078   -42.078     0.000     35.00

------------------------------Saturation indices-------------------------------

	Phase               SI   log IAP   log K(298 K, 301 atm)

	CH4(g)            2.30     -0.72   -3.02  CH4	 Pressure 301.1 atm, phi 0.668.
	H2(g)           -22.16    -25.26   -3.10  H2
	H2O(g)           -1.41     -0.00    1.41  H2O
	O2(g)           -39.00    -42.08   -3.08  O2


------------------
End of simulation.
------------------

-------------------------------------
Reading input data for simulation 18.
-------------------------------------

		SOLUTION 1
	 temp 25
	 pH 3 charge
	C(-4) 1 CH4(g)   2.5066e+00
	pressure   3.2110e+02
	END
-------------------------------------------
Beginning of initial solution calculations.
-------------------------------------------

Initial solution 1.	

-----------------------------Solution composition------------------------------

	Elements           Molality       Moles

	C(-4)             1.986e-01   1.986e-01  Equilibrium with CH4(g)

----------------------------Description of solution----------------------------

                                       pH  =   7.000      Charge balance
                                       pe  =   4.000    
       Specific Conductance (uS/cm, 25 oC) = 0
                          Density (g/cm3)  =   1.01181
                        Activity of water  =   0.997
                           Ionic strength  =   9.992e-08
                       Mass of water (kg)  =   1.000e+00
                 Total alkalinity (eq/kg)  =   2.118e-22
                    Total carbon (mol/kg)  =   1.986e-01
                       Total CO2 (mol/kg)  =   0.000e+00
                      Temperature (deg C)  =  25.00
                           Pressure (atm)  = 321.10
                  Electrical balance (eq)  =  -2.118e-22
 Percent error, 100*(Cat-|An|)/(Cat+|An|)  =  -0.00
                               Iterations  =  38
                                  Total H  = 1.118070e+02
                                  Total O  = 5.550622e+01

----------------------------Distribution of species----------------------------

                                            Log       Log         Log     mole V
   Species          Molality    Activity  Molality  Activity     Gamma   cm3/mol

   OH-             9.992e-08   9.988e-08    -7.000    -7.000    -0.000     (0)  
   H+              9.992e-08   9.988e-08    -7.000    -7.000    -0.000      0.00
   H2O             5.551e+01   9.966e-01     1.744    -0.001     0.000     17.81
C(-4)         1.986e-01
   CH4             1.986e-01   1.986e-01    -0.702    -0.702     0.000     33.00
H(0)          1.087e-25
   H2              5.437e-26   5.437e-26   -25.265   -25.265     0.000     20.00
O(0)          0.000e+00
   O2              0.000e+00   0.000e+00   -42.077   -42.077     0.000     35.00

------------------------------Saturation indices-------------------------------

	Phase               SI   log IAP   log K(298 K, 321 atm)

	CH4(g)            2.33     -0.70   -3.03  CH4	 Pressure 321.1 atm, phi 0.664.
	H2(g)           -22.16    -25.26   -3.10  H2
	H2O(g)           -1.40     -0.00    1.40  H2O
	O2(g)           -38.98    -42.08   -3.09  O2


------------------
End of simulation.
------------------

-------------------------------------
Reading input data for simulation 19.
-------------------------------------

		SOLUTION 1
	 temp 25
	 pH 3 charge
	C(-4) 1 CH4(g)   2.5329e+00
	pressure   3.4110e+02
	END
-------------------------------------------
Beginning of initial solution calculations.
-------------------------------------------

Initial solution 1.	

-----------------------------Solution composition------------------------------

	Elements           Molality       Moles

	C(-4)             2.044e-01   2.044e-01  Equilibrium with CH4(g)

----------------------------Description of solution----------------------------

                                       pH  =   7.001      Charge balance
                                       pe  =   4.000    
       Specific Conductance (uS/cm, 25 oC) = 0
                          Density (g/cm3)  =   1.01273
                        Activity of water  =   0.997
                           Ionic strength  =   9.992e-08
                       Mass of water (kg)  =   1.000e+00
                 Total alkalinity (eq/kg)  =   1.985e-22
                    Total carbon (mol/kg)  =   2.044e-01
                       Total CO2 (mol/kg)  =   0.000e+00
                      Temperature (deg C)  =  25.00
                           Pressure (atm)  = 341.10
                  Electrical balance (eq)  =  -1.985e-22
 Percent error, 100*(Cat-|An|)/(Cat+|An|)  =  -0.00
                               Iterations  =  38
                                  Total H  = 1.118299e+02
                                  Total O  = 5.550622e+01

----------------------------Distribution of species----------------------------

                                            Log       Log         Log     mole V
   Species          Molality    Activity  Molality  Activity     Gamma   cm3/mol

   OH-             9.992e-08   9.988e-08    -7.000    -7.001    -0.000     (0)  
   H+              9.992e-08   9.988e-08    -7.000    -7.001    -0.000      0.00
   H2O             5.551e+01   9.965e-01     1.744    -0.002     0.000     17.79
C(-4)         2.044e-01
   CH4             2.044e-01   2.044e-01    -0.690    -0.690     0.000     33.00
H(0)          1.070e-25
   H2              5.348e-26   5.348e-26   -25.272   -25.272     0.000     20.00
O(0)          0.000e+00
   O2              0.000e+00   0.000e+00   -42.077   -42.077     0.000     35.00

------------------------------Saturation indices-------------------------------

	Phase               SI   log IAP   log K(298 K, 341 atm)

	CH4(g)            2.35     -0.69   -3.04  CH4	 Pressure 341.1 atm, phi 0.660.
	H2(g)           -22.17    -25.27   -3.10  H2
	H2O(g)           -1.40     -0.00    1.40  H2O
	O2(g)           -38.97    -42.08   -3.11  O2


------------------
End of simulation.
------------------

-------------------------------------
Reading input data for simulation 20.
-------------------------------------

		SOLUTION 1
	 temp 25
	 pH 3 charge
	C(-4) 1 CH4(g)   2.5576e+00
	pressure   3.6110e+02
	END
-------------------------------------------
Beginning of initial solution calculations.
-------------------------------------------

Initial solution 1.	

-----------------------------Solution composition------------------------------

	Elements           Molality       Moles

	C(-4)             2.098e-01   2.098e-01  Equilibrium with CH4(g)

----------------------------Description of solution----------------------------

                                       pH  =   7.001      Charge balance
                                       pe  =   4.000    
       Specific Conductance (uS/cm, 25 oC) = 0
                          Density (g/cm3)  =   1.01365
                        Activity of water  =   0.996
                           Ionic strength  =   9.991e-08
                       Mass of water (kg)  =   1.000e+00
                 Total alkalinity (eq/kg)  =   0.000e+00
                    Total carbon (mol/kg)  =   2.098e-01
                       Total CO2 (mol/kg)  =   0.000e+00
                      Temperature (deg C)  =  25.00
                           Pressure (atm)  = 361.10
                  Electrical balance (eq)  =   0.000e+00
 Percent error, 100*(Cat-|An|)/(Cat+|An|)  =   0.00
                               Iterations  =  38
                                  Total H  = 1.118516e+02
                                  Total O  = 5.550622e+01

----------------------------Distribution of species----------------------------

                                            Log       Log         Log     mole V
   Species          Molality    Activity  Molality  Activity     Gamma   cm3/mol

   H+              9.991e-08   9.988e-08    -7.000    -7.001    -0.000      0.00
   OH-             9.991e-08   9.988e-08    -7.000    -7.001    -0.000     (0)  
   H2O             5.551e+01   9.964e-01     1.744    -0.002     0.000     17.77
C(-4)         2.098e-01
   CH4             2.098e-01   2.098e-01    -0.678    -0.678     0.000     33.00
H(0)          1.052e-25
   H2              5.261e-26   5.261e-26   -25.279   -25.279     0.000     20.00
O(0)          0.000e+00
   O2              0.000e+00   0.000e+00   -42.077   -42.077     0.000     35.00

------------------------------Saturation indices-------------------------------

	Phase               SI   log IAP   log K(298 K, 361 atm)

	CH4(g)            2.38     -0.68   -3.05  CH4	 Pressure 361.1 atm, phi 0.658.
	H2(g)           -22.18    -25.28   -3.10  H2
	H2O(g)           -1.39     -0.00    1.39  H2O
	O2(g)           -38.96    -42.08   -3.12  O2


------------------
End of simulation.
------------------

-------------------------------------
Reading input data for simulation 21.
-------------------------------------

		SOLUTION 1
	 temp 25
	 pH 3 charge
	C(-4) 1 CH4(g)   2.5810e+00
	pressure   3.8110e+02
	END
-------------------------------------------
Beginning of initial solution calculations.
-------------------------------------------

Initial solution 1.	

-----------------------------Solution composition------------------------------

	Elements           Molality       Moles

	C(-4)             2.150e-01   2.150e-01  Equilibrium with CH4(g)

----------------------------Description of solution----------------------------

                                       pH  =   7.001      Charge balance
                                       pe  =   4.000    
       Specific Conductance (uS/cm, 25 oC) = 0
                          Density (g/cm3)  =   1.01457
                        Activity of water  =   0.996
                           Ionic strength  =   9.991e-08
                       Mass of water (kg)  =   1.000e+00
                 Total alkalinity (eq/kg)  =   4.103e-22
                    Total carbon (mol/kg)  =   2.150e-01
                       Total CO2 (mol/kg)  =   0.000e+00
                      Temperature (deg C)  =  25.00
                           Pressure (atm)  = 381.10
                  Electrical balance (eq)  =  -4.103e-22
 Percent error, 100*(Cat-|An|)/(Cat+|An|)  =  -0.00
                               Iterations  =  38
                                  Total H  = 1.118726e+02
                                  Total O  = 5.550622e+01

----------------------------Distribution of species----------------------------

                                            Log       Log         Log     mole V
   Species          Molality    Activity  Molality  Activity     Gamma   cm3/mol

   OH-             9.991e-08   9.987e-08    -7.000    -7.001    -0.000     (0)  
   H+              9.991e-08   9.987e-08    -7.000    -7.001    -0.000      0.00
   H2O             5.551e+01   9.963e-01     1.744    -0.002     0.000     17.76
C(-4)         2.150e-01
   CH4             2.150e-01   2.150e-01    -0.667    -0.667     0.000     33.00
H(0)          1.035e-25
   H2              5.175e-26   5.175e-26   -25.286   -25.286     0.000     20.00
O(0)          0.000e+00
   O2              0.000e+00   0.000e+00   -42.077   -42.077     0.000     35.00

------------------------------Saturation indices-------------------------------

	Phase               SI   log IAP   log K(298 K, 381 atm)

	CH4(g)            2.40     -0.67   -3.07  CH4	 Pressure 381.1 atm, phi 0.656.
	H2(g)           -22.18    -25.29   -3.10  H2
	H2O(g)           -1.38     -0.00    1.38  H2O
	O2(g)           -38.95    -42.08   -3.13  O2


------------------
End of simulation.
------------------

-------------------------------------
Reading input data for simulation 22.
-------------------------------------

		SOLUTION 1
	 temp 25
	 pH 3 charge
	C(-4) 1 CH4(g)   2.6033e+00
	pressure   4.0110e+02
	END
-------------------------------------------
Beginning of initial solution calculations.
-------------------------------------------

Initial solution 1.	

-----------------------------Solution composition------------------------------

	Elements           Molality       Moles

	C(-4)             2.201e-01   2.201e-01  Equilibrium with CH4(g)

----------------------------Description of solution----------------------------

                                       pH  =   7.001      Charge balance
                                       pe  =   4.000    
       Specific Conductance (uS/cm, 25 oC) = 0
                          Density (g/cm3)  =   1.01549
                        Activity of water  =   0.996
                           Ionic strength  =   9.990e-08
                       Mass of water (kg)  =   1.000e+00
                 Total alkalinity (eq/kg)  =   0.000e+00
                    Total carbon (mol/kg)  =   2.201e-01
                       Total CO2 (mol/kg)  =   0.000e+00
                      Temperature (deg C)  =  25.00
                           Pressure (atm)  = 401.10
                  Electrical balance (eq)  =   0.000e+00
 Percent error, 100*(Cat-|An|)/(Cat+|An|)  =   0.00
                               Iterations  =  38
                                  Total H  = 1.118929e+02
                                  Total O  = 5.550622e+01

----------------------------Distribution of species----------------------------

                                            Log       Log         Log     mole V
   Species          Molality    Activity  Molality  Activity     Gamma   cm3/mol

   H+              9.990e-08   9.987e-08    -7.000    -7.001    -0.000      0.00
   OH-             9.990e-08   9.987e-08    -7.000    -7.001    -0.000     (0)  
   H2O             5.551e+01   9.963e-01     1.744    -0.002     0.000     17.74
C(-4)         2.201e-01
   CH4             2.201e-01   2.201e-01    -0.657    -0.657     0.000     33.00
H(0)          1.018e-25
   H2              5.091e-26   5.091e-26   -25.293   -25.293     0.000     20.00
O(0)          0.000e+00
   O2              0.000e+00   0.000e+00   -42.078   -42.078     0.000     35.00

------------------------------Saturation indices-------------------------------

	Phase               SI   log IAP   log K(298 K, 401 atm)

	CH4(g)            2.42     -0.66   -3.08  CH4	 Pressure 401.1 atm, phi 0.656.
	H2(g)           -22.19    -25.29   -3.10  H2
	H2O(g)           -1.38     -0.00    1.38  H2O
	O2(g)           -38.93    -42.08   -3.14  O2


------------------
End of simulation.
------------------

-------------------------------------
Reading input data for simulation 23.
-------------------------------------

		SOLUTION 1
	 temp 25
	 pH 3 charge
	C(-4) 1 CH4(g)   2.6244e+00
	pressure   4.2110e+02
	END
-------------------------------------------
Beginning of initial solution calculations.
-------------------------------------------

Initial solution 1.	

-----------------------------Solution composition------------------------------

	Elements           Molality       Moles

	C(-4)             2.250e-01   2.250e-01  Equilibrium with CH4(g)

----------------------------Description of solution----------------------------

                                       pH  =   7.001      Charge balance
                                       pe  =   4.000    
       Specific Conductance (uS/cm, 25 oC) = 0
                          Density (g/cm3)  =   1.01641
                        Activity of water  =   0.996
                           Ionic strength  =   9.990e-08
                       Mass of water (kg)  =   1.000e+00
                 Total alkalinity (eq/kg)  =   0.000e+00
                    Total carbon (mol/kg)  =   2.250e-01
                       Total CO2 (mol/kg)  =   0.000e+00
                      Temperature (deg C)  =  25.00
                           Pressure (atm)  = 421.10
                  Electrical balance (eq)  =   0.000e+00
 Percent error, 100*(Cat-|An|)/(Cat+|An|)  =   0.00
                               Iterations  =  38
                                  Total H  = 1.119123e+02
                                  Total O  = 5.550622e+01

----------------------------Distribution of species----------------------------

                                            Log       Log         Log     mole V
   Species          Molality    Activity  Molality  Activity     Gamma   cm3/mol

   H+              9.990e-08   9.986e-08    -7.000    -7.001    -0.000      0.00
   OH-             9.990e-08   9.986e-08    -7.000    -7.001    -0.000     (0)  
   H2O             5.551e+01   9.962e-01     1.744    -0.002     0.000     17.73
C(-4)         2.250e-01
   CH4             2.250e-01   2.250e-01    -0.648    -0.648     0.000     33.00
H(0)          1.002e-25
   H2              5.008e-26   5.008e-26   -25.300   -25.300     0.000     20.00
O(0)          0.000e+00
   O2              0.000e+00   0.000e+00   -42.078   -42.078     0.000     35.00

------------------------------Saturation indices-------------------------------

	Phase               SI   log IAP   log K(298 K, 421 atm)

	CH4(g)            2.44     -0.65   -3.09  CH4	 Pressure 421.1 atm, phi 0.656.
	H2(g)           -22.20    -25.30   -3.10  H2
	H2O(g)           -1.37     -0.00    1.37  H2O
	O2(g)           -38.92    -42.08   -3.16  O2


------------------
End of simulation.
------------------

-------------------------------------
Reading input data for simulation 24.
-------------------------------------

		SOLUTION 1
	 temp 25
	 pH 3 charge
	C(-4) 1 CH4(g)   2.6445e+00
	pressure   4.4110e+02
	END
-------------------------------------------
Beginning of initial solution calculations.
-------------------------------------------

Initial solution 1.	

-----------------------------Solution composition------------------------------

	Elements           Molality       Moles

	C(-4)             2.296e-01   2.296e-01  Equilibrium with CH4(g)

----------------------------Description of solution----------------------------

                                       pH  =   7.001      Charge balance
                                       pe  =   4.000    
       Specific Conductance (uS/cm, 25 oC) = 0
                          Density (g/cm3)  =   1.01733
                        Activity of water  =   0.996
                           Ionic strength  =   9.990e-08
                       Mass of water (kg)  =   1.000e+00
                 Total alkalinity (eq/kg)  =  -1.985e-22
                    Total carbon (mol/kg)  =   2.296e-01
                       Total CO2 (mol/kg)  =   0.000e+00
                      Temperature (deg C)  =  25.00
                           Pressure (atm)  = 441.10
                  Electrical balance (eq)  =   1.985e-22
 Percent error, 100*(Cat-|An|)/(Cat+|An|)  =   0.00
                               Iterations  =  38
                                  Total H  = 1.119310e+02
                                  Total O  = 5.550622e+01

----------------------------Distribution of species----------------------------

                                            Log       Log         Log     mole V
   Species          Molality    Activity  Molality  Activity     Gamma   cm3/mol

   H+              9.990e-08   9.986e-08    -7.000    -7.001    -0.000      0.00
   OH-             9.990e-08   9.986e-08    -7.000    -7.001    -0.000     (0)  
   H2O             5.551e+01   9.961e-01     1.744    -0.002     0.000     17.71
C(-4)         2.296e-01
   CH4             2.296e-01   2.296e-01    -0.639    -0.639     0.000     33.00
H(0)          9.853e-26
   H2              4.926e-26   4.926e-26   -25.307   -25.307     0.000     20.00
O(0)          0.000e+00
   O2              0.000e+00   0.000e+00   -42.078   -42.078     0.000     35.00

------------------------------Saturation indices-------------------------------

	Phase               SI   log IAP   log K(298 K, 441 atm)

	CH4(g)            2.46     -0.64   -3.10  CH4	 Pressure 441.1 atm, phi 0.657.
	H2(g)           -22.21    -25.31   -3.10  H2
	H2O(g)           -1.37     -0.00    1.36  H2O
	O2(g)           -38.91    -42.08   -3.17  O2


------------------
End of simulation.
------------------

-------------------------------------
Reading input data for simulation 25.
-------------------------------------

		SOLUTION 1
	 temp 25
	 pH 3 charge
	C(-4) 1 CH4(g)   2.6638e+00
	pressure   4.6110e+02
	END
-------------------------------------------
Beginning of initial solution calculations.
-------------------------------------------

Initial solution 1.	

-----------------------------Solution composition------------------------------

	Elements           Molality       Moles

	C(-4)             2.342e-01   2.342e-01  Equilibrium with CH4(g)

----------------------------Description of solution----------------------------

                                       pH  =   7.001      Charge balance
                                       pe  =   4.000    
       Specific Conductance (uS/cm, 25 oC) = 0
                          Density (g/cm3)  =   1.01825
                        Activity of water  =   0.996
                           Ionic strength  =   9.989e-08
                       Mass of water (kg)  =   1.000e+00
                 Total alkalinity (eq/kg)  =   1.985e-22
                    Total carbon (mol/kg)  =   2.342e-01
                       Total CO2 (mol/kg)  =   0.000e+00
                      Temperature (deg C)  =  25.00
                           Pressure (atm)  = 461.10
                  Electrical balance (eq)  =  -1.985e-22
 Percent error, 100*(Cat-|An|)/(Cat+|An|)  =  -0.00
                               Iterations  =  38
                                  Total H  = 1.119492e+02
                                  Total O  = 5.550622e+01

----------------------------Distribution of species----------------------------

                                            Log       Log         Log     mole V
   Species          Molality    Activity  Molality  Activity     Gamma   cm3/mol

   OH-             9.989e-08   9.985e-08    -7.000    -7.001    -0.000     (0)  
   H+              9.989e-08   9.985e-08    -7.000    -7.001    -0.000      0.00
   H2O             5.551e+01   9.960e-01     1.744    -0.002     0.000     17.69
C(-4)         2.342e-01
   CH4             2.342e-01   2.342e-01    -0.630    -0.630     0.000     33.00
H(0)          9.692e-26
   H2              4.846e-26   4.846e-26   -25.315   -25.315     0.000     20.00
O(0)          0.000e+00
   O2              0.000e+00   0.000e+00   -42.078   -42.078     0.000     35.00

------------------------------Saturation indices-------------------------------

	Phase               SI   log IAP   log K(298 K, 461 atm)

	CH4(g)            2.48     -0.63   -3.11  CH4	 Pressure 461.1 atm, phi 0.658.
	H2(g)           -22.21    -25.31   -3.10  H2
	H2O(g)           -1.36     -0.00    1.36  H2O
	O2(g)           -38.90    -42.08   -3.18  O2


------------------
End of simulation.
------------------

-------------------------------------
Reading input data for simulation 26.
-------------------------------------

		SOLUTION 1
	 temp 25
	 pH 3 charge
	C(-4) 1 CH4(g)   2.6822e+00
	pressure   4.8110e+02
	END
-------------------------------------------
Beginning of initial solution calculations.
-------------------------------------------

Initial solution 1.	

-----------------------------Solution composition------------------------------

	Elements           Molality       Moles

	C(-4)             2.386e-01   2.386e-01  Equilibrium with CH4(g)

----------------------------Description of solution----------------------------

                                       pH  =   7.001      Charge balance
                                       pe  =   4.000    
       Specific Conductance (uS/cm, 25 oC) = 0
                          Density (g/cm3)  =   1.01917
                        Activity of water  =   0.996
                           Ionic strength  =   9.989e-08
                       Mass of water (kg)  =   1.000e+00
                 Total alkalinity (eq/kg)  =   0.000e+00
                    Total carbon (mol/kg)  =   2.386e-01
                       Total CO2 (mol/kg)  =   0.000e+00
                      Temperature (deg C)  =  25.00
                           Pressure (atm)  = 481.10
                  Electrical balance (eq)  =   0.000e+00
 Percent error, 100*(Cat-|An|)/(Cat+|An|)  =   0.00
                               Iterations  =  38
                                  Total H  = 1.119668e+02
                                  Total O  = 5.550622e+01

----------------------------Distribution of species----------------------------

                                            Log       Log         Log     mole V
   Species          Molality    Activity  Molality  Activity     Gamma   cm3/mol

   H+              9.989e-08   9.985e-08    -7.000    -7.001    -0.000      0.00
   OH-             9.989e-08   9.985e-08    -7.000    -7.001    -0.000     (0)  
   H2O             5.551e+01   9.959e-01     1.744    -0.002     0.000     17.68
C(-4)         2.386e-01
   CH4             2.386e-01   2.386e-01    -0.622    -0.622     0.000     33.00
H(0)          9.534e-26
   H2              4.767e-26   4.767e-26   -25.322   -25.322     0.000     20.00
O(0)          0.000e+00
   O2              0.000e+00   0.000e+00   -42.078   -42.078     0.000     35.00

------------------------------Saturation indices-------------------------------

	Phase               SI   log IAP   log K(298 K, 481 atm)

	CH4(g)            2.50     -0.62   -3.12  CH4	 Pressure 481.1 atm, phi 0.660.
	H2(g)           -22.22    -25.32   -3.10  H2
	H2O(g)           -1.35     -0.00    1.35  H2O
	O2(g)           -38.88    -42.08   -3.19  O2


------------------
End of simulation.
------------------

-------------------------------------
Reading input data for simulation 27.
-------------------------------------

		SOLUTION 1
	 temp 25
	 pH 3 charge
	C(-4) 1 CH4(g)   2.6999e+00
	pressure   5.0110e+02
	END
-------------------------------------------
Beginning of initial solution calculations.
-------------------------------------------

Initial solution 1.	

-----------------------------Solution composition------------------------------

	Elements           Molality       Moles

	C(-4)             2.429e-01   2.429e-01  Equilibrium with CH4(g)

----------------------------Description of solution----------------------------

                                       pH  =   7.001      Charge balance
                                       pe  =   4.000    
       Specific Conductance (uS/cm, 25 oC) = 0
                          Density (g/cm3)  =   1.02009
                        Activity of water  =   0.996
                           Ionic strength  =   9.988e-08
                       Mass of water (kg)  =   1.000e+00
                 Total alkalinity (eq/kg)  =   2.118e-22
                    Total carbon (mol/kg)  =   2.429e-01
                       Total CO2 (mol/kg)  =   0.000e+00
                      Temperature (deg C)  =  25.00
                           Pressure (atm)  = 501.10
                  Electrical balance (eq)  =  -2.118e-22
 Percent error, 100*(Cat-|An|)/(Cat+|An|)  =  -0.00
                               Iterations  =  38
                                  Total H  = 1.119839e+02
                                  Total O  = 5.550622e+01

----------------------------Distribution of species----------------------------

                                            Log       Log         Log     mole V
   Species          Molality    Activity  Molality  Activity     Gamma   cm3/mol

   OH-             9.988e-08   9.985e-08    -7.001    -7.001    -0.000     (0)  
   H+              9.988e-08   9.985e-08    -7.001    -7.001    -0.000      0.00
   H2O             5.551e+01   9.959e-01     1.744    -0.002     0.000     17.66
C(-4)         2.429e-01
   CH4             2.429e-01   2.429e-01    -0.615    -0.615     0.000     33.00
H(0)          9.379e-26
   H2              4.690e-26   4.690e-26   -25.329   -25.329     0.000     20.00
O(0)          0.000e+00
   O2              0.000e+00   0.000e+00   -42.078   -42.078     0.000     35.00

------------------------------Saturation indices-------------------------------

	Phase               SI   log IAP   log K(298 K, 501 atm)

	CH4(g)            2.52     -0.61   -3.14  CH4	 Pressure 501.1 atm, phi 0.663.
	H2(g)           -22.23    -25.33   -3.10  H2
	H2O(g)           -1.35     -0.00    1.35  H2O
	O2(g)           -38.87    -42.08   -3.21  O2


------------------
End of simulation.
------------------

-------------------------------------
Reading input data for simulation 28.
-------------------------------------

		SOLUTION 1
	 temp 25
	 pH 3 charge
	C(-4) 1 CH4(g)   2.7169e+00
	pressure   5.2110e+02
	END
-------------------------------------------
Beginning of initial solution calculations.
-------------------------------------------

Initial solution 1.	

-----------------------------Solution composition------------------------------

	Elements           Molality       Moles

	C(-4)             2.470e-01   2.470e-01  Equilibrium with CH4(g)

----------------------------Description of solution----------------------------

                                       pH  =   7.001      Charge balance
[...]
Reading input data for simulation 122.
--------------------------------------

		SOLUTION 1
	 temp 100
	 pH 3 charge
	C(-4) 1 CH4(g)   2.8332e+00
	pressure   6.8110e+02
	END
-------------------------------------------
Beginning of initial solution calculations.
-------------------------------------------

Initial solution 1.	

-----------------------------Solution composition------------------------------

	Elements           Molality       Moles

	C(-4)             2.620e-01   2.620e-01  Equilibrium with CH4(g)

----------------------------Description of solution----------------------------

                                       pH  =   6.134      Charge balance
                                       pe  =   4.000    
       Specific Conductance (uS/cm, 100 oC) = 1
                          Density (g/cm3)  =   0.98968
                        Activity of water  =   0.996
                           Ionic strength  =   7.360e-07
                       Mass of water (kg)  =   1.000e+00
                 Total alkalinity (eq/kg)  =   2.965e-21
                    Total carbon (mol/kg)  =   2.620e-01
                       Total CO2 (mol/kg)  =   0.000e+00
                      Temperature (deg C)  = 100.00
                           Pressure (atm)  = 681.10
                  Electrical balance (eq)  =  -2.965e-21
 Percent error, 100*(Cat-|An|)/(Cat+|An|)  =  -0.00
                               Iterations  =  12
                                  Total H  = 1.120603e+02
                                  Total O  = 5.550622e+01

----------------------------Distribution of species----------------------------

                                            Log       Log         Log     mole V
   Species          Molality    Activity  Molality  Activity     Gamma   cm3/mol

   OH-             7.360e-07   7.351e-07    -6.133    -6.134    -0.001     (0)  
   H+              7.360e-07   7.351e-07    -6.133    -6.134    -0.001      0.00
   H2O             5.551e+01   9.955e-01     1.744    -0.002     0.000     18.20
C(-4)         2.620e-01
   CH4             2.620e-01   2.620e-01    -0.582    -0.582     0.000     33.00
H(0)          2.702e-24
   H2              1.351e-24   1.351e-24   -23.869   -23.869     0.000     20.00
O(0)          4.198e-26
   O2              2.099e-26   2.099e-26   -25.678   -25.678     0.000     35.00

------------------------------Saturation indices-------------------------------

	Phase               SI   log IAP   log K(373 K, 681 atm)

	CH4(g)            2.80     -0.58   -3.38  CH4	 Pressure 681.1 atm, phi 0.928.
	H2(g)           -20.77    -23.87   -3.10  H2
	H2O(g)            0.17     -0.00   -0.17  H2O
	O2(g)           -22.21    -25.68   -3.47  O2


------------------
End of simulation.
------------------

--------------------------------------
Reading input data for simulation 123.
--------------------------------------

		SOLUTION 1
	 temp 100
	 pH 3 charge
	C(-4) 1 CH4(g)   2.8458e+00
	pressure   7.0110e+02
	END
-------------------------------------------
Beginning of initial solution calculations.
-------------------------------------------

Initial solution 1.	

-----------------------------Solution composition------------------------------

	Elements           Molality       Moles

	C(-4)             2.662e-01   2.662e-01  Equilibrium with CH4(g)

----------------------------Description of solution----------------------------

                                       pH  =   6.134      Charge balance
                                       pe  =   4.000    
       Specific Conductance (uS/cm, 100 oC) = 1
                          Density (g/cm3)  =   0.99060
                        Activity of water  =   0.995
                           Ionic strength  =   7.360e-07
                       Mass of water (kg)  =   1.000e+00
                 Total alkalinity (eq/kg)  =  -1.588e-21
                    Total carbon (mol/kg)  =   2.662e-01
                       Total CO2 (mol/kg)  =   0.000e+00
                      Temperature (deg C)  = 100.00
                           Pressure (atm)  = 701.10
                  Electrical balance (eq)  =   1.588e-21
 Percent error, 100*(Cat-|An|)/(Cat+|An|)  =   0.00
                               Iterations  =  12
                                  Total H  = 1.120771e+02
                                  Total O  = 5.550622e+01

----------------------------Distribution of species----------------------------

                                            Log       Log         Log     mole V
   Species          Molality    Activity  Molality  Activity     Gamma   cm3/mol

   H+              7.360e-07   7.351e-07    -6.133    -6.134    -0.001      0.00
   OH-             7.360e-07   7.351e-07    -6.133    -6.134    -0.001     (0)  
   H2O             5.551e+01   9.955e-01     1.744    -0.002     0.000     18.19
C(-4)         2.662e-01
   CH4             2.662e-01   2.662e-01    -0.575    -0.575     0.000     33.00
H(0)          2.667e-24
   H2              1.333e-24   1.333e-24   -23.875   -23.875     0.000     20.00
O(0)          4.199e-26
   O2              2.099e-26   2.099e-26   -25.678   -25.678     0.000     35.00

------------------------------Saturation indices-------------------------------

	Phase               SI   log IAP   log K(373 K, 701 atm)

	CH4(g)            2.82     -0.57   -3.39  CH4	 Pressure 701.1 atm, phi 0.936.
	H2(g)           -20.77    -23.88   -3.10  H2
	H2O(g)            0.17     -0.00   -0.18  H2O
	O2(g)           -22.20    -25.68   -3.48  O2


------------------
End of simulation.
------------------

--------------------------------------
Reading input data for simulation 124.
--------------------------------------

		SOLUTION 1
	 temp 100
	 pH 3 charge
	C(-4) 1 CH4(g)   2.8580e+00
	pressure   7.2110e+02
	END
-------------------------------------------
Beginning of initial solution calculations.
-------------------------------------------

Initial solution 1.	

-----------------------------Solution composition------------------------------

	Elements           Molality       Moles

	C(-4)             2.703e-01   2.703e-01  Equilibrium with CH4(g)

----------------------------Description of solution----------------------------

                                       pH  =   6.134      Charge balance
                                       pe  =   4.000    
       Specific Conductance (uS/cm, 100 oC) = 1
                          Density (g/cm3)  =   0.99152
                        Activity of water  =   0.995
                           Ionic strength  =   7.359e-07
                       Mass of water (kg)  =   1.000e+00
                 Total alkalinity (eq/kg)  =   0.000e+00
                    Total carbon (mol/kg)  =   2.703e-01
                       Total CO2 (mol/kg)  =   0.000e+00
                      Temperature (deg C)  = 100.00
                           Pressure (atm)  = 721.10
                  Electrical balance (eq)  =   0.000e+00
 Percent error, 100*(Cat-|An|)/(Cat+|An|)  =   0.00
                               Iterations  =  12
                                  Total H  = 1.120936e+02
                                  Total O  = 5.550622e+01

----------------------------Distribution of species----------------------------

                                            Log       Log         Log     mole V
   Species          Molality    Activity  Molality  Activity     Gamma   cm3/mol

   H+              7.359e-07   7.351e-07    -6.133    -6.134    -0.001      0.00
   OH-             7.359e-07   7.351e-07    -6.133    -6.134    -0.001     (0)  
   H2O             5.551e+01   9.954e-01     1.744    -0.002     0.000     18.17
C(-4)         2.703e-01
   CH4             2.703e-01   2.703e-01    -0.568    -0.568     0.000     33.00
H(0)          2.632e-24
   H2              1.316e-24   1.316e-24   -23.881   -23.881     0.000     20.00
O(0)          4.199e-26
   O2              2.100e-26   2.100e-26   -25.678   -25.678     0.000     35.00

------------------------------Saturation indices-------------------------------

	Phase               SI   log IAP   log K(373 K, 721 atm)

	CH4(g)            2.83     -0.57   -3.40  CH4	 Pressure 721.1 atm, phi 0.944.
	H2(g)           -20.78    -23.88   -3.10  H2
	H2O(g)            0.18     -0.00   -0.18  H2O
	O2(g)           -22.19    -25.68   -3.49  O2


------------------
End of simulation.
------------------

--------------------------------------
Reading input data for simulation 125.
--------------------------------------

		SOLUTION 1
	 temp 100
	 pH 3 charge
	C(-4) 1 CH4(g)   2.8699e+00
	pressure   7.4110e+02
	END
-------------------------------------------
Beginning of initial solution calculations.
-------------------------------------------

Initial solution 1.	

-----------------------------Solution composition------------------------------

	Elements           Molality       Moles

	C(-4)             2.743e-01   2.743e-01  Equilibrium with CH4(g)

----------------------------Description of solution----------------------------

                                       pH  =   6.134      Charge balance
                                       pe  =   4.000    
       Specific Conductance (uS/cm, 100 oC) = 1
                          Density (g/cm3)  =   0.99244
                        Activity of water  =   0.995
                           Ionic strength  =   7.359e-07
                       Mass of water (kg)  =   1.000e+00
                 Total alkalinity (eq/kg)  =  -1.482e-21
                    Total carbon (mol/kg)  =   2.743e-01
                       Total CO2 (mol/kg)  =   0.000e+00
                      Temperature (deg C)  = 100.00
                           Pressure (atm)  = 741.10
                  Electrical balance (eq)  =   1.482e-21
 Percent error, 100*(Cat-|An|)/(Cat+|An|)  =   0.00
                               Iterations  =  12
                                  Total H  = 1.121098e+02
                                  Total O  = 5.550622e+01

----------------------------Distribution of species----------------------------

                                            Log       Log         Log     mole V
   Species          Molality    Activity  Molality  Activity     Gamma   cm3/mol

   H+              7.359e-07   7.350e-07    -6.133    -6.134    -0.001      0.00
   OH-             7.359e-07   7.350e-07    -6.133    -6.134    -0.001     (0)  
   H2O             5.551e+01   9.953e-01     1.744    -0.002     0.000     18.15
C(-4)         2.743e-01
   CH4             2.743e-01   2.743e-01    -0.562    -0.562     0.000     33.00
H(0)          2.598e-24
   H2              1.299e-24   1.299e-24   -23.886   -23.886     0.000     20.00
O(0)          4.199e-26
   O2              2.100e-26   2.100e-26   -25.678   -25.678     0.000     35.00

------------------------------Saturation indices-------------------------------

	Phase               SI   log IAP   log K(373 K, 741 atm)

	CH4(g)            2.85     -0.56   -3.41  CH4	 Pressure 741.1 atm, phi 0.953.
	H2(g)           -20.79    -23.89   -3.10  H2
	H2O(g)            0.18     -0.00   -0.19  H2O
	O2(g)           -22.18    -25.68   -3.50  O2


------------------
End of simulation.
------------------

--------------------------------------
Reading input data for simulation 126.
--------------------------------------

		SOLUTION 1
	 temp 100
	 pH 3 charge
	C(-4) 1 CH4(g)   2.8814e+00
	pressure   7.6110e+02
	END
-------------------------------------------
Beginning of initial solution calculations.
-------------------------------------------

Initial solution 1.	

-----------------------------Solution composition------------------------------

	Elements           Molality       Moles

	C(-4)             2.783e-01   2.783e-01  Equilibrium with CH4(g)

----------------------------Description of solution----------------------------

                                       pH  =   6.134      Charge balance
                                       pe  =   4.000    
       Specific Conductance (uS/cm, 100 oC) = 1
                          Density (g/cm3)  =   0.99336
                        Activity of water  =   0.995
                           Ionic strength  =   7.359e-07
                       Mass of water (kg)  =   1.000e+00
                 Total alkalinity (eq/kg)  =   0.000e+00
                    Total carbon (mol/kg)  =   2.783e-01
                       Total CO2 (mol/kg)  =   0.000e+00
                      Temperature (deg C)  = 100.00
                           Pressure (atm)  = 761.10
                  Electrical balance (eq)  =   0.000e+00
 Percent error, 100*(Cat-|An|)/(Cat+|An|)  =   0.00
                               Iterations  =  12
                                  Total H  = 1.121254e+02
                                  Total O  = 5.550622e+01

----------------------------Distribution of species----------------------------

                                            Log       Log         Log     mole V
   Species          Molality    Activity  Molality  Activity     Gamma   cm3/mol

   H+              7.359e-07   7.350e-07    -6.133    -6.134    -0.001      0.00
   OH-             7.359e-07   7.350e-07    -6.133    -6.134    -0.001     (0)  
   H2O             5.551e+01   9.953e-01     1.744    -0.002     0.000     18.14
C(-4)         2.783e-01
   CH4             2.783e-01   2.783e-01    -0.556    -0.556     0.000     33.00
H(0)          2.564e-24
   H2              1.282e-24   1.282e-24   -23.892   -23.892     0.000     20.00
O(0)          4.200e-26
   O2              2.100e-26   2.100e-26   -25.678   -25.678     0.000     35.00

------------------------------Saturation indices-------------------------------

	Phase               SI   log IAP   log K(373 K, 761 atm)

	CH4(g)            2.86     -0.56   -3.42  CH4	 Pressure 761.0 atm, phi 0.962.
	H2(g)           -20.79    -23.89   -3.10  H2
	H2O(g)            0.19     -0.00   -0.19  H2O
	O2(g)           -22.17    -25.68   -3.51  O2


------------------
End of simulation.
------------------

--------------------------------------
Reading input data for simulation 127.
--------------------------------------

		SOLUTION 1
	 temp 100
	 pH 3 charge
	C(-4) 1 CH4(g)   2.8927e+00
	pressure   7.8110e+02
	END
-------------------------------------------
Beginning of initial solution calculations.
-------------------------------------------

Initial solution 1.	

-----------------------------Solution composition------------------------------

	Elements           Molality       Moles

	C(-4)             2.822e-01   2.822e-01  Equilibrium with CH4(g)

----------------------------Description of solution----------------------------

                                       pH  =   6.134      Charge balance
                                       pe  =   4.000    
       Specific Conductance (uS/cm, 100 oC) = 1
                          Density (g/cm3)  =   0.99428
                        Activity of water  =   0.995
                           Ionic strength  =   7.359e-07
                       Mass of water (kg)  =   1.000e+00
                 Total alkalinity (eq/kg)  =  -1.482e-21
                    Total carbon (mol/kg)  =   2.822e-01
                       Total CO2 (mol/kg)  =   0.000e+00
                      Temperature (deg C)  = 100.00
                           Pressure (atm)  = 781.10
                  Electrical balance (eq)  =   1.482e-21
 Percent error, 100*(Cat-|An|)/(Cat+|An|)  =   0.00
                               Iterations  =  12
                                  Total H  = 1.121412e+02
                                  Total O  = 5.550622e+01

----------------------------Distribution of species----------------------------

                                            Log       Log         Log     mole V
   Species          Molality    Activity  Molality  Activity     Gamma   cm3/mol

   H+              7.359e-07   7.350e-07    -6.133    -6.134    -0.001      0.00
   OH-             7.359e-07   7.350e-07    -6.133    -6.134    -0.001     (0)  
   H2O             5.551e+01   9.952e-01     1.744    -0.002     0.000     18.12
C(-4)         2.822e-01
   CH4             2.822e-01   2.822e-01    -0.549    -0.549     0.000     33.00
H(0)          2.530e-24
   H2              1.265e-24   1.265e-24   -23.898   -23.898     0.000     20.00
O(0)          4.199e-26
   O2              2.100e-26   2.100e-26   -25.678   -25.678     0.000     35.00

------------------------------Saturation indices-------------------------------

	Phase               SI   log IAP   log K(373 K, 781 atm)

	CH4(g)            2.88     -0.55   -3.43  CH4	 Pressure 781.1 atm, phi 0.971.
	H2(g)           -20.80    -23.90   -3.10  H2
	H2O(g)            0.19     -0.00   -0.20  H2O
	O2(g)           -22.16    -25.68   -3.52  O2


------------------
End of simulation.
------------------

--------------------------------------
Reading input data for simulation 128.
--------------------------------------

		SOLUTION 1
	 temp 100
	 pH 3 charge
	C(-4) 1 CH4(g)   2.9037e+00
	pressure   8.0110e+02
	END
-------------------------------------------
Beginning of initial solution calculations.
-------------------------------------------

Initial solution 1.	

-----------------------------Solution composition------------------------------

	Elements           Molality       Moles

	C(-4)             2.860e-01   2.860e-01  Equilibrium with CH4(g)

----------------------------Description of solution----------------------------

                                       pH  =   6.134      Charge balance
                                       pe  =   4.000    
       Specific Conductance (uS/cm, 100 oC) = 1
                          Density (g/cm3)  =   0.99520
                        Activity of water  =   0.995
                           Ionic strength  =   7.358e-07
                       Mass of water (kg)  =   1.000e+00
                 Total alkalinity (eq/kg)  =   2.965e-21
                    Total carbon (mol/kg)  =   2.860e-01
                       Total CO2 (mol/kg)  =   0.000e+00
                      Temperature (deg C)  = 100.00
                           Pressure (atm)  = 801.10
                  Electrical balance (eq)  =  -2.965e-21
 Percent error, 100*(Cat-|An|)/(Cat+|An|)  =  -0.00
                               Iterations  =  12
                                  Total H  = 1.121565e+02
                                  Total O  = 5.550622e+01

----------------------------Distribution of species----------------------------

                                            Log       Log         Log     mole V
   Species          Molality    Activity  Molality  Activity     Gamma   cm3/mol

   OH-             7.358e-07   7.350e-07    -6.133    -6.134    -0.001     (0)  
   H+              7.358e-07   7.350e-07    -6.133    -6.134    -0.001      0.00
   H2O             5.551e+01   9.951e-01     1.744    -0.002     0.000     18.10
C(-4)         2.860e-01
   CH4             2.860e-01   2.860e-01    -0.544    -0.544     0.000     33.00
H(0)          2.497e-24
   H2              1.249e-24   1.249e-24   -23.904   -23.904     0.000     20.00
O(0)          4.199e-26
   O2              2.100e-26   2.100e-26   -25.678   -25.678     0.000     35.00

------------------------------Saturation indices-------------------------------

	Phase               SI   log IAP   log K(373 K, 801 atm)

	CH4(g)            2.90     -0.54   -3.44  CH4	 Pressure 801.1 atm, phi 0.981.
	H2(g)           -20.80    -23.90   -3.10  H2
	H2O(g)            0.20     -0.00   -0.20  H2O
	O2(g)           -22.15    -25.68   -3.53  O2


------------------
End of simulation.
------------------

--------------------------------------
Reading input data for simulation 129.
--------------------------------------

	END
------------------
End of simulation.
------------------

--------------------------------------
Reading input data for simulation 130.
--------------------------------------

-----------
End of run.
-----------

