   Input file: CO2_anal
  Output file: CO2_anal.out
Database file: ../database/phreeqc.dat

------------------
Reading data base.
------------------

	SOLUTION_MASTER_SPECIES
	SOLUTION_SPECIES
	PHASES
	EXCHANGE_MASTER_SPECIES
	EXCHANGE_SPECIES
	SURFACE_MASTER_SPECIES
	SURFACE_SPECIES
	RATES
	END
------------------------------------
Reading input data for simulation 1.
------------------------------------

	DATABASE ../database/phreeqc.dat
	SOLUTION 1
	PHASES
	CO2(g)
		CO2 = CO2
		log_k	-1.468
		delta_h  -4.776 kcal
		analytical_expression	108.3865	0.01985076	-6919.53	-40.45154	669365.0
		t_c  304.2 # critical T, K
		p_c   72.80 # critical P, atm
		omega 0.225 #  acentric factor
	vm   2.6050944E+01  9.3248418E-03  -7.4742551E-02   0.0000000E+00
	EQUILIBRIUM_PHASES
	 CO2(g) -1
	REACTION_TEMPERATURE
	 5 200 in 10
	USER_GRAPH
	 -axis_titles "temp / oC" "CO2 / (mol/kgw)"
	 -chart_title "P_CO2 = 0.1 atm"
	 -axis_scale x_axis 0 200
	 -headings tc old
	 10 x = tc
	 20 graph_x x
	 30 graph_y tot("C(4)")
	 -end
	END
-------------------------------------------
Beginning of initial solution calculations.
-------------------------------------------

Initial solution 1.	

-----------------------------Solution composition------------------------------

	Elements           Molality       Moles

	Pure water     

----------------------------Description of solution----------------------------

                                       pH  =   7.000    
                                       pe  =   4.000    
       Specific Conductance (uS/cm, 25 oC) = 0
                          Density (g/cm3)  =   0.99704
                        Activity of water  =   1.000
                           Ionic strength  =   1.002e-07
                       Mass of water (kg)  =   1.000e+00
                 Total alkalinity (eq/kg)  =   2.208e-10
                    Total carbon (mol/kg)  =   0.000e+00
                       Total CO2 (mol/kg)  =   0.000e+00
                      Temperature (deg C)  =  25.00
                  Electrical balance (eq)  =  -2.208e-10
 Percent error, 100*(Cat-|An|)/(Cat+|An|)  =  -0.11
                               Iterations  =   0
                                  Total H  = 1.110124e+02
                                  Total O  = 5.550622e+01

----------------------------Distribution of species----------------------------

                                               Log       Log       Log    mole V
   Species          Molality    Activity  Molality  Activity     Gamma   cm3/mol

   OH-             1.003e-07   1.002e-07    -6.999    -6.999    -0.000     -4.11
   H+              1.001e-07   1.000e-07    -7.000    -7.000    -0.000      0.00
   H2O             5.551e+01   1.000e+00     1.744     0.000     0.000     18.07
H(0)          1.416e-25
   H2              7.079e-26   7.079e-26   -25.150   -25.150     0.000     28.61
O(0)          0.000e+00
   O2              0.000e+00   0.000e+00   -42.080   -42.080     0.000     30.40

------------------------------Saturation indices-------------------------------

	Phase               SI   log IAP   log K(298 K,   1 atm)

	H2(g)           -22.05    -25.15   -3.10  H2
	H2O(g)           -1.50      0.00    1.50  H2O
	O2(g)           -39.19    -42.08   -2.89  O2


-----------------------------------------
Beginning of batch-reaction calculations.
-----------------------------------------

Reaction step 1.

Using solution 1.	
Using pure phase assemblage 1.	
Using temperature 1.	

-------------------------------Phase assemblage--------------------------------

                                                      Moles in assemblage
Phase               SI  log IAP  log K(T, P)   Initial       Final       Delta

CO2(g)           -1.00    -2.19     -1.19    1.000e+01   9.994e+00  -6.466e-03

-----------------------------Solution composition------------------------------

	Elements           Molality       Moles

	C                 6.466e-03   6.466e-03

----------------------------Description of solution----------------------------

                                       pH  =   4.354      Charge balance
                                       pe  =   1.232      Adjusted to redox equilibrium
       Specific Conductance (uS/cm, 5 oC) = 10
                          Density (g/cm3)  =   1.00001
                        Activity of water  =   1.000
                           Ionic strength  =   4.455e-05
                       Mass of water (kg)  =   1.000e+00
                 Total alkalinity (eq/kg)  =   2.208e-10
                       Total CO2 (mol/kg)  =   6.466e-03
                      Temperature (deg C)  =   5.00
                  Electrical balance (eq)  =  -2.208e-10
 Percent error, 100*(Cat-|An|)/(Cat+|An|)  =  -0.00
                               Iterations  =  13
                                  Total H  = 1.110124e+02
                                  Total O  = 5.551915e+01

----------------------------Distribution of species----------------------------

                                               Log       Log       Log    mole V
   Species          Molality    Activity  Molality  Activity     Gamma   cm3/mol

   H+              4.455e-05   4.422e-05    -4.351    -4.354    -0.003      0.00
   OH-             4.089e-11   4.058e-11   -10.388   -10.392    -0.003     -5.83
   H2O             5.551e+01   9.999e-01     1.744    -0.000     0.000     18.02
C(-4)         2.171e-20
   CH4             2.171e-20   2.171e-20   -19.663   -19.663     0.000     32.22
C(4)          6.466e-03
   CO2             6.421e-03   6.421e-03    -2.192    -2.192     0.000     37.67
   HCO3-           4.455e-05   4.422e-05    -4.351    -4.354    -0.003     22.45
   CO3-2           2.875e-11   2.790e-11   -10.541   -10.554    -0.013     -7.64
H(0)          1.179e-14
   H2              5.897e-15   5.897e-15   -14.229   -14.229     0.000     28.63
O(0)          0.000e+00
   O2              0.000e+00   0.000e+00   -70.840   -70.840     0.000     28.29

------------------------------Saturation indices-------------------------------

	Phase               SI   log IAP   log K(278 K,   1 atm)

	CH4(g)          -17.01    -19.66   -2.65  CH4
	CO2(g)           -1.00     -2.19   -1.19  CO2	 Pressure   0.1 atm, phi 0.999.
	H2(g)           -11.19    -14.23   -3.03  H2
	H2O(g)           -2.06     -0.00    2.06  H2O
	O2(g)           -68.13    -70.84   -2.71  O2


Reaction step 2.

Using solution 1.	
Using pure phase assemblage 1.	
Using temperature 1.	

-------------------------------Phase assemblage--------------------------------

                                                      Moles in assemblage
Phase               SI  log IAP  log K(T, P)   Initial       Final       Delta

CO2(g)           -1.00    -2.49     -1.49    1.000e+01   9.997e+00  -3.293e-03

-----------------------------Solution composition------------------------------

	Elements           Molality       Moles

	C                 3.293e-03   3.293e-03

----------------------------Description of solution----------------------------

                                       pH  =   4.415      Charge balance
                                       pe  =   1.121      Adjusted to redox equilibrium
       Specific Conductance (uS/cm, 26 oC) = 15
                          Density (g/cm3)  =   0.99665
                        Activity of water  =   1.000
                           Ionic strength  =   3.870e-05
                       Mass of water (kg)  =   1.000e+00
                 Total alkalinity (eq/kg)  =   2.208e-10
                       Total CO2 (mol/kg)  =   3.293e-03
                      Temperature (deg C)  =  26.67
                  Electrical balance (eq)  =  -2.208e-10
 Percent error, 100*(Cat-|An|)/(Cat+|An|)  =  -0.00
                               Iterations  =  13
                                  Total H  = 1.110124e+02
                                  Total O  = 5.551280e+01

----------------------------Distribution of species----------------------------

                                               Log       Log       Log    mole V
   Species          Molality    Activity  Molality  Activity     Gamma   cm3/mol

   H+              3.870e-05   3.842e-05    -4.412    -4.415    -0.003      0.00
   OH-             2.984e-10   2.962e-10    -9.525    -9.528    -0.003     -4.03
   H2O             5.551e+01   9.999e-01     1.744    -0.000     0.000     18.08
C(-4)         2.448e-23
   CH4             2.448e-23   2.448e-23   -22.611   -22.611     0.000     32.22
C(4)          3.293e-03
   CO2             3.255e-03   3.255e-03    -2.487    -2.487     0.000     29.83
   HCO3-           3.870e-05   3.842e-05    -4.412    -4.415    -0.003     24.66
   CO3-2           4.989e-11   4.846e-11   -10.302   -10.315    -0.013     -3.92
H(0)          1.180e-14
   H2              5.899e-15   5.899e-15   -14.229   -14.229     0.000     28.60
O(0)          0.000e+00
   O2              0.000e+00   0.000e+00   -63.387   -63.387     0.000     30.53

------------------------------Saturation indices-------------------------------

	Phase               SI   log IAP   log K(299 K,   1 atm)

	CH4(g)          -19.76    -22.61   -2.86  CH4
	CO2(g)           -1.00     -2.49   -1.49  CO2	 Pressure   0.1 atm, phi 0.999.
	H2(g)           -11.12    -14.23   -3.10  H2
	H2O(g)           -1.46     -0.00    1.46  H2O
	O2(g)           -60.48    -63.39   -2.90  O2


Reaction step 3.

Using solution 1.	
Using pure phase assemblage 1.	
Using temperature 1.	

-------------------------------Phase assemblage--------------------------------

                                                      Moles in assemblage
Phase               SI  log IAP  log K(T, P)   Initial       Final       Delta

CO2(g)           -1.00    -2.70     -1.70    1.000e+01   9.998e+00  -2.039e-03

-----------------------------Solution composition------------------------------

	Elements           Molality       Moles

	C                 2.039e-03   2.039e-03

----------------------------Description of solution----------------------------

                                       pH  =   4.492      Charge balance
                                       pe  =   1.001      Adjusted to redox equilibrium
       Specific Conductance (uS/cm, 48 oC) = 20
                          Density (g/cm3)  =   0.98881
                        Activity of water  =   1.000
                           Ionic strength  =   3.243e-05
                       Mass of water (kg)  =   1.000e+00
                 Total alkalinity (eq/kg)  =   2.209e-10
                       Total CO2 (mol/kg)  =   2.039e-03
                      Temperature (deg C)  =  48.33
                  Electrical balance (eq)  =  -2.209e-10
 Percent error, 100*(Cat-|An|)/(Cat+|An|)  =  -0.00
                               Iterations  =  12
                                  Total H  = 1.110124e+02
                                  Total O  = 5.551029e+01

----------------------------Distribution of species----------------------------

                                               Log       Log       Log    mole V
   Species          Molality    Activity  Molality  Activity     Gamma   cm3/mol

   H+              3.243e-05   3.221e-05    -4.489    -4.492    -0.003      0.00
   OH-             1.549e-09   1.538e-09    -8.810    -8.813    -0.003     -3.70
   H2O             5.551e+01   1.000e+00     1.744    -0.000     0.000     18.22
C(-4)         5.200e-26
   CH4             5.200e-26   5.200e-26   -25.284   -25.284     0.000     32.22
C(4)          2.039e-03
   CO2             2.006e-03   2.006e-03    -2.698    -2.698     0.000     25.62
   HCO3-           3.243e-05   3.220e-05    -4.489    -4.492    -0.003     25.17
   CO3-2           6.775e-11   6.590e-11   -10.169   -10.181    -0.012     -3.14
H(0)          1.180e-14
   H2              5.899e-15   5.899e-15   -14.229   -14.229     0.000     28.59
O(0)          0.000e+00
   O2              0.000e+00   0.000e+00   -56.938   -56.938     0.000     31.84

------------------------------Saturation indices-------------------------------

	Phase               SI   log IAP   log K(321 K,   1 atm)

	CH4(g)          -22.30    -25.28   -2.98  CH4
	CO2(g)           -1.00     -2.70   -1.70  CO2	 Pressure   0.1 atm, phi 1.000.
	H2(g)           -11.09    -14.23   -3.14  H2
	H2O(g)           -0.95     -0.00    0.95  H2O
	O2(g)           -53.91    -56.94   -3.02  O2


Reaction step 4.

Using solution 1.	
Using pure phase assemblage 1.	
Using temperature 1.	

-------------------------------Phase assemblage--------------------------------

                                                      Moles in assemblage
Phase               SI  log IAP  log K(T, P)   Initial       Final       Delta

CO2(g)           -1.00    -2.85     -1.85    1.000e+01   9.999e+00  -1.451e-03

-----------------------------Solution composition------------------------------

	Elements           Molality       Moles

	C                 1.451e-03   1.451e-03

----------------------------Description of solution----------------------------

                                       pH  =   4.577      Charge balance
                                       pe  =   0.878      Adjusted to redox equilibrium
       Specific Conductance (uS/cm, 70 oC) = 23
                          Density (g/cm3)  =   0.97779
                        Activity of water  =   1.000
                           Ionic strength  =   2.664e-05
                       Mass of water (kg)  =   1.000e+00
                 Total alkalinity (eq/kg)  =   2.208e-10
                       Total CO2 (mol/kg)  =   1.451e-03
                      Temperature (deg C)  =  70.00
                  Electrical balance (eq)  =  -2.208e-10
 Percent error, 100*(Cat-|An|)/(Cat+|An|)  =  -0.00
                               Iterations  =  13
                                  Total H  = 1.110124e+02
                                  Total O  = 5.550912e+01

----------------------------Distribution of species----------------------------

                                               Log       Log       Log    mole V
   Species          Molality    Activity  Molality  Activity     Gamma   cm3/mol

   H+              2.664e-05   2.647e-05    -4.574    -4.577    -0.003      0.00
   OH-             6.142e-09   6.102e-09    -8.212    -8.215    -0.003     -4.24
   H2O             5.551e+01   1.000e+00     1.744    -0.000     0.000     18.43
C(-4)         1.907e-28
   CH4             1.907e-28   1.907e-28   -27.720   -27.720     0.000     32.22
C(4)          1.451e-03
   CO2             1.425e-03   1.425e-03    -2.846    -2.846     0.000     22.99
   HCO3-           2.663e-05   2.646e-05    -4.575    -4.577    -0.003     24.71
   CO3-2           7.643e-11   7.444e-11   -10.117   -10.128    -0.011     -4.09
H(0)          1.180e-14
   H2              5.898e-15   5.898e-15   -14.229   -14.229     0.000     28.58
O(0)          0.000e+00
   O2              0.000e+00   0.000e+00   -51.303   -51.303     0.000     32.79

------------------------------Saturation indices-------------------------------

	Phase               SI   log IAP   log K(343 K,   1 atm)

	CH4(g)          -24.67    -27.72   -3.05  CH4
	CO2(g)           -1.00     -2.85   -1.85  CO2	 Pressure   0.1 atm, phi 1.000.
	H2(g)           -11.09    -14.23   -3.14  H2
	H2O(g)           -0.51     -0.00    0.51  H2O
	O2(g)           -48.21    -51.30   -3.09  O2


Reaction step 5.

Using solution 1.	
Using pure phase assemblage 1.	
Using temperature 1.	

-------------------------------Phase assemblage--------------------------------

                                                      Moles in assemblage
Phase               SI  log IAP  log K(T, P)   Initial       Final       Delta

CO2(g)           -1.00    -2.95     -1.95    1.000e+01   9.999e+00  -1.145e-03

-----------------------------Solution composition------------------------------

	Elements           Molality       Moles

	C                 1.145e-03   1.145e-03

----------------------------Description of solution----------------------------

                                       pH  =   4.667      Charge balance
                                       pe  =   0.755      Adjusted to redox equilibrium
       Specific Conductance (uS/cm, 91 oC) = 24
                          Density (g/cm3)  =   0.96420
                        Activity of water  =   1.000
                           Ionic strength  =   2.165e-05
                       Mass of water (kg)  =   1.000e+00
                 Total alkalinity (eq/kg)  =   2.208e-10
                       Total CO2 (mol/kg)  =   1.145e-03
                      Temperature (deg C)  =  91.67
                  Electrical balance (eq)  =  -2.208e-10
 Percent error, 100*(Cat-|An|)/(Cat+|An|)  =  -0.00
                               Iterations  =  13
                                  Total H  = 1.110124e+02
                                  Total O  = 5.550851e+01

----------------------------Distribution of species----------------------------

                                               Log       Log       Log    mole V
   Species          Molality    Activity  Molality  Activity     Gamma   cm3/mol

   H+              2.165e-05   2.151e-05    -4.665    -4.667    -0.003      0.00
   OH-             1.962e-08   1.950e-08    -7.707    -7.710    -0.003     -5.52
   H2O             5.551e+01   1.000e+00     1.744    -0.000     0.000     18.69
C(-4)         1.117e-30
   CH4             1.117e-30   1.117e-30   -29.952   -29.952     0.000     32.22
C(4)          1.145e-03
   CO2             1.124e-03   1.124e-03    -2.949    -2.949     0.000     21.20
   HCO3-           2.163e-05   2.149e-05    -4.665    -4.668    -0.003     23.43
   CO3-2           7.460e-11   7.276e-11   -10.127   -10.138    -0.011     -6.48
H(0)          1.180e-14
   H2              5.899e-15   5.899e-15   -14.229   -14.229     0.000     28.57
O(0)          0.000e+00
   O2              0.000e+00   0.000e+00   -46.338   -46.338     0.000     33.60

------------------------------Saturation indices-------------------------------

	Phase               SI   log IAP   log K(364 K,   1 atm)

	CH4(g)          -26.89    -29.95   -3.07  CH4
	CO2(g)           -1.00     -2.95   -1.95  CO2	 Pressure   0.1 atm, phi 1.000.
	H2(g)           -11.12    -14.23   -3.11  H2
	H2O(g)           -0.14     -0.00    0.14  H2O
	O2(g)           -43.22    -46.34   -3.11  O2


Reaction step 6.

Using solution 1.	
Using pure phase assemblage 1.	
Using temperature 1.	

-------------------------------Phase assemblage--------------------------------

                                                      Moles in assemblage
Phase               SI  log IAP  log K(T, P)   Initial       Final       Delta

CO2(g)           -1.00    -3.02     -2.02    1.000e+01   9.999e+00  -9.779e-04

-----------------------------Solution composition------------------------------

	Elements           Molality       Moles

	C                 9.779e-04   9.779e-04

----------------------------Description of solution----------------------------

                                       pH  =   4.760      Charge balance
                                       pe  =   0.633      Adjusted to redox equilibrium
       Specific Conductance (uS/cm, 113 oC) = 24
                          Density (g/cm3)  =   0.94841
                        Activity of water  =   1.000
                           Ionic strength  =   1.750e-05
                       Mass of water (kg)  =   1.000e+00
                 Total alkalinity (eq/kg)  =   2.208e-10
                       Total CO2 (mol/kg)  =   9.779e-04
                      Temperature (deg C)  = 113.33
                           Pressure (atm)  =  1.58
                  Electrical balance (eq)  =  -2.208e-10
 Percent error, 100*(Cat-|An|)/(Cat+|An|)  =  -0.00
                               Iterations  =  14
                                  Total H  = 1.110124e+02
                                  Total O  = 5.550817e+01

----------------------------Distribution of species----------------------------

                                               Log       Log       Log    mole V
   Species          Molality    Activity  Molality  Activity     Gamma   cm3/mol

   H+              1.750e-05   1.739e-05    -4.757    -4.760    -0.003      0.00
   OH-             5.246e-08   5.215e-08    -7.280    -7.283    -0.003     -7.60
   H2O             5.551e+01   1.000e+00     1.744    -0.000     0.000     19.00
C(-4)         9.764e-33
   CH4             9.764e-33   9.764e-33   -32.010   -32.010     0.000     32.22
C(4)          9.779e-04
   CO2             9.604e-04   9.604e-04    -3.018    -3.018     0.000     19.90
   HCO3-           1.744e-05   1.734e-05    -4.758    -4.761    -0.003     21.29
   CO3-2           6.487e-11   6.335e-11   -10.188   -10.198    -0.010    -10.41
H(0)          1.180e-14
   H2              5.899e-15   5.899e-15   -14.229   -14.229     0.000     28.57
O(0)          0.000e+00
   O2              0.000e+00   0.000e+00   -41.930   -41.930     0.000     34.38

------------------------------Saturation indices-------------------------------

	Phase               SI   log IAP   log K(386 K,   2 atm)

	CH4(g)          -28.96    -32.01   -3.05  CH4
	CO2(g)           -1.00     -3.02   -2.02  CO2	 Pressure   0.1 atm, phi 1.000.
	H2(g)           -11.15    -14.23   -3.07  H2
	H2O(g)            0.19     -0.00   -0.19  H2O
	O2(g)           -38.82    -41.93   -3.11  O2


Reaction step 7.

Using solution 1.	
Using pure phase assemblage 1.	
Using temperature 1.	

-------------------------------Phase assemblage--------------------------------

                                                      Moles in assemblage
Phase               SI  log IAP  log K(T, P)   Initial       Final       Delta

CO2(g)           -1.00    -3.06     -2.06    1.000e+01   9.999e+00  -8.884e-04

-----------------------------Solution composition------------------------------

	Elements           Molality       Moles

	C                 8.884e-04   8.884e-04

----------------------------Description of solution----------------------------

                                       pH  =   4.853      Charge balance
                                       pe  =   0.513      Adjusted to redox equilibrium
       Specific Conductance (uS/cm, 135 oC) = 24
                          Density (g/cm3)  =   0.93056
                        Activity of water  =   1.000
                           Ionic strength  =   1.411e-05
                       Mass of water (kg)  =   1.000e+00
                 Total alkalinity (eq/kg)  =   2.208e-10
                       Total CO2 (mol/kg)  =   8.884e-04
                      Temperature (deg C)  = 135.00
                           Pressure (atm)  =  3.09
                  Electrical balance (eq)  =  -2.208e-10
 Percent error, 100*(Cat-|An|)/(Cat+|An|)  =  -0.00
                               Iterations  =  14
                                  Total H  = 1.110124e+02
                                  Total O  = 5.550799e+01

----------------------------Distribution of species----------------------------

                                               Log       Log       Log    mole V
   Species          Molality    Activity  Molality  Activity     Gamma   cm3/mol

   H+              1.411e-05   1.403e-05    -4.850    -4.853    -0.002      0.00
   OH-             1.206e-07   1.199e-07    -6.919    -6.921    -0.002    -10.66
   H2O             5.551e+01   1.000e+00     1.744    -0.000     0.000     19.36
C(-4)         1.203e-34
   CH4             1.203e-34   1.203e-34   -33.920   -33.920     0.000     32.22
C(4)          8.884e-04
   CO2             8.745e-04   8.745e-04    -3.058    -3.058     0.000     18.94
   HCO3-           1.399e-05   1.391e-05    -4.854    -4.857    -0.002     18.11
   CO3-2           5.124e-11   5.009e-11   -10.290   -10.300    -0.010    -16.22
H(0)          1.180e-14
   H2              5.899e-15   5.899e-15   -14.229   -14.229     0.000     28.56
O(0)          2.043e-38
   O2              1.021e-38   1.021e-38   -37.991   -37.991     0.000     35.24

------------------------------Saturation indices-------------------------------

	Phase               SI   log IAP   log K(408 K,   3 atm)

	CH4(g)          -30.91    -33.92   -3.01  CH4
	CO2(g)           -1.00     -3.06   -2.06  CO2	 Pressure   0.1 atm, phi 1.000.
	H2(g)           -11.21    -14.23   -3.02  H2
	H2O(g)            0.48     -0.00   -0.48  H2O
	O2(g)           -34.92    -37.99   -3.08  O2


Reaction step 8.

Using solution 1.	
Using pure phase assemblage 1.	
Using temperature 1.	

-------------------------------Phase assemblage--------------------------------

                                                      Moles in assemblage
Phase               SI  log IAP  log K(T, P)   Initial       Final       Delta

CO2(g)           -1.00    -3.08     -2.07    1.000e+01   9.999e+00  -8.489e-04

-----------------------------Solution composition------------------------------

	Elements           Molality       Moles

	C                 8.489e-04   8.489e-04

----------------------------Description of solution----------------------------

                                       pH  =   4.946      Charge balance
                                       pe  =   4.951      Adjusted to redox equilibrium
       Specific Conductance (uS/cm, 156 oC) = 23
                          Density (g/cm3)  =   0.91071
                        Activity of water  =   1.000
                           Ionic strength  =   1.139e-05
                       Mass of water (kg)  =   1.000e+00
                 Total alkalinity (eq/kg)  =   2.208e-10
                       Total CO2 (mol/kg)  =   8.489e-04
                      Temperature (deg C)  = 156.67
                           Pressure (atm)  =  5.60
                  Electrical balance (eq)  =  -2.208e-10
 Percent error, 100*(Cat-|An|)/(Cat+|An|)  =  -0.00
                               Iterations  =  10
                                  Total H  = 1.110124e+02
                                  Total O  = 5.550791e+01

----------------------------Distribution of species----------------------------

                                               Log       Log       Log    mole V
   Species          Molality    Activity  Molality  Activity     Gamma   cm3/mol

   H+              1.139e-05   1.133e-05    -4.943    -4.946    -0.002      0.00
   OH-             2.428e-07   2.415e-07    -6.615    -6.617    -0.002    -15.03
   H2O             5.551e+01   1.000e+00     1.744    -0.000     0.000     19.78
C(-4)         0.000e+00
   CH4             0.000e+00   0.000e+00   -72.141   -72.141     0.000     32.22
C(4)          8.489e-04
   CO2             8.378e-04   8.378e-04    -3.077    -3.077     0.000     18.22
   HCO3-           1.115e-05   1.109e-05    -4.953    -4.955    -0.002     13.54
   CO3-2           3.721e-11   3.641e-11   -10.429   -10.439    -0.009    -24.56
H(0)          9.162e-24
   H2              4.581e-24   4.581e-24   -23.339   -23.339     0.000     28.56
O(0)          1.179e-16
   O2              5.893e-17   5.893e-17   -16.230   -16.230     0.000     36.24

------------------------------Saturation indices-------------------------------

	Phase               SI   log IAP   log K(429 K,   6 atm)

	CH4(g)          -69.20    -72.14   -2.94  CH4
	CO2(g)           -1.00     -3.08   -2.07  CO2	 Pressure   0.1 atm, phi 1.000.
	H2(g)           -20.38    -23.34   -2.96  H2
	H2O(g)            0.73     -0.00   -0.73  H2O
	O2(g)           -13.21    -16.23   -3.02  O2


Reaction step 9.

Using solution 1.	
Using pure phase assemblage 1.	
Using temperature 1.	

-------------------------------Phase assemblage--------------------------------

                                                      Moles in assemblage
Phase               SI  log IAP  log K(T, P)   Initial       Final       Delta

CO2(g)           -1.01    -3.08     -2.07    1.000e+01   9.999e+00  -8.460e-04

-----------------------------Solution composition------------------------------

	Elements           Molality       Moles

	C                 8.460e-04   8.460e-04

----------------------------Description of solution----------------------------

                                       pH  =   5.036      Charge balance
                                       pe  =   5.166      Adjusted to redox equilibrium
       Specific Conductance (uS/cm, 178 oC) = 22
                          Density (g/cm3)  =   0.88880
                        Activity of water  =   1.000
                           Ionic strength  =   9.244e-06
                       Mass of water (kg)  =   1.000e+00
                 Total alkalinity (eq/kg)  =   2.208e-10
                       Total CO2 (mol/kg)  =   8.460e-04
                      Temperature (deg C)  = 178.33
                           Pressure (atm)  =  9.54
                  Electrical balance (eq)  =  -2.208e-10
 Percent error, 100*(Cat-|An|)/(Cat+|An|)  =  -0.00
                               Iterations  =  10
                                  Total H  = 1.110124e+02
                                  Total O  = 5.550791e+01

----------------------------Distribution of species----------------------------

                                               Log       Log       Log    mole V
   Species          Molality    Activity  Molality  Activity     Gamma   cm3/mol

   H+              9.244e-06   9.196e-06    -5.034    -5.036    -0.002      0.00
   OH-             4.336e-07   4.314e-07    -6.363    -6.365    -0.002    -21.28
   H2O             5.551e+01   1.000e+00     1.744    -0.000     0.000     20.27
C(-4)         0.000e+00
   CH4             0.000e+00   0.000e+00   -76.444   -76.444     0.000     32.22
C(4)          8.460e-04
   CO2             8.372e-04   8.372e-04    -3.077    -3.077     0.000     17.69
   HCO3-           8.810e-06   8.764e-06    -5.055    -5.057    -0.002      6.98
   CO3-2           2.502e-11   2.450e-11   -10.602   -10.611    -0.009    -36.50
H(0)          2.016e-24
   H2              1.008e-24   1.008e-24   -23.997   -23.997     0.000     28.55
O(0)          3.864e-12
   O2              1.932e-12   1.932e-12   -11.714   -11.714     0.000     37.53

------------------------------Saturation indices-------------------------------

	Phase               SI   log IAP   log K(451 K,  10 atm)

	CH4(g)          -73.59    -76.44   -2.86  CH4
	CO2(g)           -1.01     -3.08   -2.07  CO2	 Pressure   0.1 atm, phi 1.000.
	H2(g)           -21.11    -24.00   -2.89  H2
	H2O(g)            0.96     -0.00   -0.96  H2O
	O2(g)            -8.76    -11.71   -2.96  O2


Reaction step 10.

Using solution 1.	
Using pure phase assemblage 1.	
Using temperature 1.	

-------------------------------Phase assemblage--------------------------------

                                                      Moles in assemblage
Phase               SI  log IAP  log K(T, P)   Initial       Final       Delta

CO2(g)           -1.01    -3.06     -2.05    1.000e+01   9.999e+00  -8.738e-04

-----------------------------Solution composition------------------------------

	Elements           Molality       Moles

	C                 8.738e-04   8.738e-04

----------------------------Description of solution----------------------------

                                       pH  =   5.123      Charge balance
                                       pe  =   5.077      Adjusted to redox equilibrium
       Specific Conductance (uS/cm, 200 oC) = 21
                          Density (g/cm3)  =   0.86469
                        Activity of water  =   1.000
                           Ionic strength  =   7.570e-06
                       Mass of water (kg)  =   1.000e+00
                 Total alkalinity (eq/kg)  =   2.208e-10
                       Total CO2 (mol/kg)  =   8.738e-04
                      Temperature (deg C)  = 200.00
                           Pressure (atm)  = 15.38
                  Electrical balance (eq)  =  -2.208e-10
 Percent error, 100*(Cat-|An|)/(Cat+|An|)  =  -0.00
                               Iterations  =  10
                                  Total H  = 1.110124e+02
                                  Total O  = 5.550796e+01

----------------------------Distribution of species----------------------------

                                               Log       Log       Log    mole V
   Species          Molality    Activity  Molality  Activity     Gamma   cm3/mol

   H+              7.569e-06   7.531e-06    -5.121    -5.123    -0.002      0.00
   OH-             6.918e-07   6.883e-07    -6.160    -6.162    -0.002    -30.32
   H2O             5.551e+01   1.000e+00     1.744    -0.000     0.000     20.84
C(-4)         0.000e+00
   CH4             0.000e+00   0.000e+00   -78.161   -78.161     0.000     32.22
C(4)          8.738e-04
   CO2             8.669e-04   8.669e-04    -3.062    -3.062     0.000     17.31
   HCO3-           6.878e-06   6.843e-06    -5.163    -5.165    -0.002     -2.53
   CO3-2           1.562e-11   1.531e-11   -10.806   -10.815    -0.009    -53.79
H(0)          1.861e-24
   H2              9.306e-25   9.306e-25   -24.031   -24.031     0.000     28.55
O(0)          3.655e-09
   O2              1.828e-09   1.828e-09    -8.738    -8.738     0.000     39.26

------------------------------Saturation indices-------------------------------

	Phase               SI   log IAP   log K(473 K,  15 atm)

	CH4(g)          -75.40    -78.16   -2.76  CH4
	CO2(g)           -1.01     -3.06   -2.05  CO2	 Pressure   0.1 atm, phi 1.000.
	H2(g)           -21.22    -24.03   -2.81  H2
	H2O(g)            1.16     -0.00   -1.16  H2O
	O2(g)            -5.86     -8.74   -2.88  O2


------------------
End of simulation.
------------------

------------------------------------
Reading input data for simulation 2.
------------------------------------

	PHASES
	CO2(g)
		CO2 = CO2
		log_k	-1.468
		delta_h  -4.776 kcal
		analytical_expression	108.3865	0.01985076	-6919.53	-40.45154	669365.0
		t_c  304.2 # critical T, K
		p_c   72.80 # critical P, atm
		omega 0.225 #  acentric factor
	vm   2.6050944E+01  9.3248418E-03  -7.4742551E-02   0.0000000E+00
	USE solution 1
	USE equilibrium_phases  1
	USE reaction_temperature 1
	USER_GRAPH
	 -headings tc new
	 -connect_simulations false
	END
-----------------------------------------
Beginning of batch-reaction calculations.
-----------------------------------------

Reaction step 1.

Using solution 1.	
Using pure phase assemblage 1.	
Using temperature 1.	

-------------------------------Phase assemblage--------------------------------

                                                      Moles in assemblage
Phase               SI  log IAP  log K(T, P)   Initial       Final       Delta

CO2(g)           -1.00    -2.19     -1.19    1.000e+01   9.994e+00  -6.466e-03

-----------------------------Solution composition------------------------------

	Elements           Molality       Moles

	C                 6.466e-03   6.466e-03

----------------------------Description of solution----------------------------

                                       pH  =   4.354      Charge balance
                                       pe  =   1.232      Adjusted to redox equilibrium
       Specific Conductance (uS/cm, 5 oC) = 10
                          Density (g/cm3)  =   1.00001
                        Activity of water  =   1.000
                           Ionic strength  =   4.455e-05
                       Mass of water (kg)  =   1.000e+00
                 Total alkalinity (eq/kg)  =   2.208e-10
                       Total CO2 (mol/kg)  =   6.466e-03
                      Temperature (deg C)  =   5.00
                  Electrical balance (eq)  =  -2.208e-10
 Percent error, 100*(Cat-|An|)/(Cat+|An|)  =  -0.00
                               Iterations  =  13
                                  Total H  = 1.110124e+02
                                  Total O  = 5.551915e+01

----------------------------Distribution of species----------------------------

                                               Log       Log       Log    mole V
   Species          Molality    Activity  Molality  Activity     Gamma   cm3/mol

   H+              4.455e-05   4.422e-05    -4.351    -4.354    -0.003      0.00
   OH-             4.089e-11   4.058e-11   -10.388   -10.392    -0.003     -5.83
   H2O             5.551e+01   9.999e-01     1.744    -0.000     0.000     18.02
C(-4)         2.171e-20
   CH4             2.171e-20   2.171e-20   -19.663   -19.663     0.000     32.22
C(4)          6.466e-03
   CO2             6.421e-03   6.421e-03    -2.192    -2.192     0.000     37.67
   HCO3-           4.455e-05   4.422e-05    -4.351    -4.354    -0.003     22.45
   CO3-2           2.875e-11   2.790e-11   -10.541   -10.554    -0.013     -7.64
H(0)          1.179e-14
   H2              5.897e-15   5.897e-15   -14.229   -14.229     0.000     28.63
O(0)          0.000e+00
   O2              0.000e+00   0.000e+00   -70.840   -70.840     0.000     28.29

------------------------------Saturation indices-------------------------------

	Phase               SI   log IAP   log K(278 K,   1 atm)

	CH4(g)          -17.01    -19.66   -2.65  CH4
	CO2(g)           -1.00     -2.19   -1.19  CO2	 Pressure   0.1 atm, phi 0.999.
	H2(g)           -11.19    -14.23   -3.03  H2
	H2O(g)           -2.06     -0.00    2.06  H2O
	O2(g)           -68.13    -70.84   -2.71  O2


Reaction step 2.

Using solution 1.	
Using pure phase assemblage 1.	
Using temperature 1.	

-------------------------------Phase assemblage--------------------------------

                                                      Moles in assemblage
Phase               SI  log IAP  log K(T, P)   Initial       Final       Delta

CO2(g)           -1.00    -2.49     -1.49    1.000e+01   9.997e+00  -3.293e-03

-----------------------------Solution composition------------------------------

	Elements           Molality       Moles

	C                 3.293e-03   3.293e-03

----------------------------Description of solution----------------------------

                                       pH  =   4.415      Charge balance
                                       pe  =   1.121      Adjusted to redox equilibrium
       Specific Conductance (uS/cm, 26 oC) = 15
                          Density (g/cm3)  =   0.99665
                        Activity of water  =   1.000
                           Ionic strength  =   3.870e-05
                       Mass of water (kg)  =   1.000e+00
                 Total alkalinity (eq/kg)  =   2.208e-10
                       Total CO2 (mol/kg)  =   3.293e-03
                      Temperature (deg C)  =  26.67
                  Electrical balance (eq)  =  -2.208e-10
 Percent error, 100*(Cat-|An|)/(Cat+|An|)  =  -0.00
                               Iterations  =  13
                                  Total H  = 1.110124e+02
                                  Total O  = 5.551280e+01

----------------------------Distribution of species----------------------------

                                               Log       Log       Log    mole V
   Species          Molality    Activity  Molality  Activity     Gamma   cm3/mol

   H+              3.870e-05   3.842e-05    -4.412    -4.415    -0.003      0.00
   OH-             2.984e-10   2.962e-10    -9.525    -9.528    -0.003     -4.03
   H2O             5.551e+01   9.999e-01     1.744    -0.000     0.000     18.08
C(-4)         2.448e-23
   CH4             2.448e-23   2.448e-23   -22.611   -22.611     0.000     32.22
C(4)          3.293e-03
   CO2             3.255e-03   3.255e-03    -2.487    -2.487     0.000     29.83
   HCO3-           3.870e-05   3.842e-05    -4.412    -4.415    -0.003     24.66
   CO3-2           4.989e-11   4.846e-11   -10.302   -10.315    -0.013     -3.92
H(0)          1.180e-14
   H2              5.899e-15   5.899e-15   -14.229   -14.229     0.000     28.60
O(0)          0.000e+00
   O2              0.000e+00   0.000e+00   -63.387   -63.387     0.000     30.53

------------------------------Saturation indices-------------------------------

	Phase               SI   log IAP   log K(299 K,   1 atm)

	CH4(g)          -19.76    -22.61   -2.86  CH4
	CO2(g)           -1.00     -2.49   -1.49  CO2	 Pressure   0.1 atm, phi 0.999.
	H2(g)           -11.12    -14.23   -3.10  H2
	H2O(g)           -1.46     -0.00    1.46  H2O
	O2(g)           -60.48    -63.39   -2.90  O2


Reaction step 3.

Using solution 1.	
Using pure phase assemblage 1.	
Using temperature 1.	

-------------------------------Phase assemblage--------------------------------

                                                      Moles in assemblage
Phase               SI  log IAP  log K(T, P)   Initial       Final       Delta

CO2(g)           -1.00    -2.70     -1.70    1.000e+01   9.998e+00  -2.039e-03

-----------------------------Solution composition------------------------------

	Elements           Molality       Moles

	C                 2.039e-03   2.039e-03

----------------------------Description of solution----------------------------

                                       pH  =   4.492      Charge balance
                                       pe  =   1.001      Adjusted to redox equilibrium
       Specific Conductance (uS/cm, 48 oC) = 20
                          Density (g/cm3)  =   0.98881
                        Activity of water  =   1.000
                           Ionic strength  =   3.243e-05
                       Mass of water (kg)  =   1.000e+00
                 Total alkalinity (eq/kg)  =   2.209e-10
                       Total CO2 (mol/kg)  =   2.039e-03
                      Temperature (deg C)  =  48.33
                  Electrical balance (eq)  =  -2.209e-10
 Percent error, 100*(Cat-|An|)/(Cat+|An|)  =  -0.00
                               Iterations  =  12
                                  Total H  = 1.110124e+02
                                  Total O  = 5.551029e+01

----------------------------Distribution of species----------------------------

                                               Log       Log       Log    mole V
   Species          Molality    Activity  Molality  Activity     Gamma   cm3/mol

   H+              3.243e-05   3.221e-05    -4.489    -4.492    -0.003      0.00
   OH-             1.549e-09   1.538e-09    -8.810    -8.813    -0.003     -3.70
   H2O             5.551e+01   1.000e+00     1.744    -0.000     0.000     18.22
C(-4)         5.200e-26
   CH4             5.200e-26   5.200e-26   -25.284   -25.284     0.000     32.22
C(4)          2.039e-03
   CO2             2.006e-03   2.006e-03    -2.698    -2.698     0.000     25.62
   HCO3-           3.243e-05   3.220e-05    -4.489    -4.492    -0.003     25.17
   CO3-2           6.775e-11   6.590e-11   -10.169   -10.181    -0.012     -3.14
H(0)          1.180e-14
   H2              5.899e-15   5.899e-15   -14.229   -14.229     0.000     28.59
O(0)          0.000e+00
   O2              0.000e+00   0.000e+00   -56.938   -56.938     0.000     31.84

------------------------------Saturation indices-------------------------------

	Phase               SI   log IAP   log K(321 K,   1 atm)

	CH4(g)          -22.30    -25.28   -2.98  CH4
	CO2(g)           -1.00     -2.70   -1.70  CO2	 Pressure   0.1 atm, phi 1.000.
	H2(g)           -11.09    -14.23   -3.14  H2
	H2O(g)           -0.95     -0.00    0.95  H2O
	O2(g)           -53.91    -56.94   -3.02  O2


Reaction step 4.

Using solution 1.	
Using pure phase assemblage 1.	
Using temperature 1.	

-------------------------------Phase assemblage--------------------------------

                                                      Moles in assemblage
Phase               SI  log IAP  log K(T, P)   Initial       Final       Delta

CO2(g)           -1.00    -2.85     -1.85    1.000e+01   9.999e+00  -1.451e-03

-----------------------------Solution composition------------------------------

	Elements           Molality       Moles

	C                 1.451e-03   1.451e-03

----------------------------Description of solution----------------------------

                                       pH  =   4.577      Charge balance
                                       pe  =   0.878      Adjusted to redox equilibrium
       Specific Conductance (uS/cm, 70 oC) = 23
                          Density (g/cm3)  =   0.97779
                        Activity of water  =   1.000
                           Ionic strength  =   2.664e-05
                       Mass of water (kg)  =   1.000e+00
                 Total alkalinity (eq/kg)  =   2.208e-10
                       Total CO2 (mol/kg)  =   1.451e-03
                      Temperature (deg C)  =  70.00
                  Electrical balance (eq)  =  -2.208e-10
 Percent error, 100*(Cat-|An|)/(Cat+|An|)  =  -0.00
                               Iterations  =  13
                                  Total H  = 1.110124e+02
                                  Total O  = 5.550912e+01

----------------------------Distribution of species----------------------------

                                               Log       Log       Log    mole V
   Species          Molality    Activity  Molality  Activity     Gamma   cm3/mol

   H+              2.664e-05   2.647e-05    -4.574    -4.577    -0.003      0.00
   OH-             6.142e-09   6.102e-09    -8.212    -8.215    -0.003     -4.24
   H2O             5.551e+01   1.000e+00     1.744    -0.000     0.000     18.43
C(-4)         1.907e-28
   CH4             1.907e-28   1.907e-28   -27.720   -27.720     0.000     32.22
C(4)          1.451e-03
   CO2             1.425e-03   1.425e-03    -2.846    -2.846     0.000     22.99
   HCO3-           2.663e-05   2.646e-05    -4.575    -4.577    -0.003     24.71
   CO3-2           7.643e-11   7.444e-11   -10.117   -10.128    -0.011     -4.09
H(0)          1.180e-14
   H2              5.898e-15   5.898e-15   -14.229   -14.229     0.000     28.58
O(0)          0.000e+00
   O2              0.000e+00   0.000e+00   -51.303   -51.303     0.000     32.79

------------------------------Saturation indices-------------------------------

	Phase               SI   log IAP   log K(343 K,   1 atm)

	CH4(g)          -24.67    -27.72   -3.05  CH4
	CO2(g)           -1.00     -2.85   -1.85  CO2	 Pressure   0.1 atm, phi 1.000.
	H2(g)           -11.09    -14.23   -3.14  H2
	H2O(g)           -0.51     -0.00    0.51  H2O
	O2(g)           -48.21    -51.30   -3.09  O2


Reaction step 5.

Using solution 1.	
Using pure phase assemblage 1.	
Using temperature 1.	

-------------------------------Phase assemblage--------------------------------

                                                      Moles in assemblage
Phase               SI  log IAP  log K(T, P)   Initial       Final       Delta

CO2(g)           -1.00    -2.95     -1.95    1.000e+01   9.999e+00  -1.145e-03

-----------------------------Solution composition------------------------------

	Elements           Molality       Moles

	C                 1.145e-03   1.145e-03

----------------------------Description of solution----------------------------

                                       pH  =   4.667      Charge balance
                                       pe  =   0.755      Adjusted to redox equilibrium
       Specific Conductance (uS/cm, 91 oC) = 24
                          Density (g/cm3)  =   0.96420
                        Activity of water  =   1.000
                           Ionic strength  =   2.165e-05
                       Mass of water (kg)  =   1.000e+00
                 Total alkalinity (eq/kg)  =   2.208e-10
                       Total CO2 (mol/kg)  =   1.145e-03
                      Temperature (deg C)  =  91.67
                  Electrical balance (eq)  =  -2.208e-10
 Percent error, 100*(Cat-|An|)/(Cat+|An|)  =  -0.00
                               Iterations  =  13
                                  Total H  = 1.110124e+02
                                  Total O  = 5.550851e+01

----------------------------Distribution of species----------------------------

                                               Log       Log       Log    mole V
   Species          Molality    Activity  Molality  Activity     Gamma   cm3/mol

   H+              2.165e-05   2.151e-05    -4.665    -4.667    -0.003      0.00
   OH-             1.962e-08   1.950e-08    -7.707    -7.710    -0.003     -5.52
   H2O             5.551e+01   1.000e+00     1.744    -0.000     0.000     18.69
C(-4)         1.117e-30
   CH4             1.117e-30   1.117e-30   -29.952   -29.952     0.000     32.22
C(4)          1.145e-03
   CO2             1.124e-03   1.124e-03    -2.949    -2.949     0.000     21.20
   HCO3-           2.163e-05   2.149e-05    -4.665    -4.668    -0.003     23.43
   CO3-2           7.460e-11   7.276e-11   -10.127   -10.138    -0.011     -6.48
H(0)          1.180e-14
   H2              5.899e-15   5.899e-15   -14.229   -14.229     0.000     28.57
O(0)          0.000e+00
   O2              0.000e+00   0.000e+00   -46.338   -46.338     0.000     33.60

------------------------------Saturation indices-------------------------------

	Phase               SI   log IAP   log K(364 K,   1 atm)

	CH4(g)          -26.89    -29.95   -3.07  CH4
	CO2(g)           -1.00     -2.95   -1.95  CO2	 Pressure   0.1 atm, phi 1.000.
	H2(g)           -11.12    -14.23   -3.11  H2
	H2O(g)           -0.14     -0.00    0.14  H2O
	O2(g)           -43.22    -46.34   -3.11  O2


Reaction step 6.

Using solution 1.	
Using pure phase assemblage 1.	
Using temperature 1.	

-------------------------------Phase assemblage--------------------------------

                                                      Moles in assemblage
Phase               SI  log IAP  log K(T, P)   Initial       Final       Delta

CO2(g)           -1.00    -3.02     -2.02    1.000e+01   9.999e+00  -9.779e-04

-----------------------------Solution composition------------------------------

	Elements           Molality       Moles

	C                 9.779e-04   9.779e-04

----------------------------Description of solution----------------------------

                                       pH  =   4.760      Charge balance
                                       pe  =   0.633      Adjusted to redox equilibrium
       Specific Conductance (uS/cm, 113 oC) = 24
                          Density (g/cm3)  =   0.94841
                        Activity of water  =   1.000
                           Ionic strength  =   1.750e-05
                       Mass of water (kg)  =   1.000e+00
                 Total alkalinity (eq/kg)  =   2.208e-10
                       Total CO2 (mol/kg)  =   9.779e-04
                      Temperature (deg C)  = 113.33
                           Pressure (atm)  =  1.58
                  Electrical balance (eq)  =  -2.208e-10
 Percent error, 100*(Cat-|An|)/(Cat+|An|)  =  -0.00
                               Iterations  =  14
                                  Total H  = 1.110124e+02
                                  Total O  = 5.550817e+01

----------------------------Distribution of species----------------------------

                                               Log       Log       Log    mole V
   Species          Molality    Activity  Molality  Activity     Gamma   cm3/mol

   H+              1.750e-05   1.739e-05    -4.757    -4.760    -0.003      0.00
   OH-             5.246e-08   5.215e-08    -7.280    -7.283    -0.003     -7.60
   H2O             5.551e+01   1.000e+00     1.744    -0.000     0.000     19.00
C(-4)         9.764e-33
   CH4             9.764e-33   9.764e-33   -32.010   -32.010     0.000     32.22
C(4)          9.779e-04
   CO2             9.604e-04   9.604e-04    -3.018    -3.018     0.000     19.90
   HCO3-           1.744e-05   1.734e-05    -4.758    -4.761    -0.003     21.29
   CO3-2           6.487e-11   6.335e-11   -10.188   -10.198    -0.010    -10.41
H(0)          1.180e-14
   H2              5.899e-15   5.899e-15   -14.229   -14.229     0.000     28.57
O(0)          0.000e+00
   O2              0.000e+00   0.000e+00   -41.930   -41.930     0.000     34.38

------------------------------Saturation indices-------------------------------

	Phase               SI   log IAP   log K(386 K,   2 atm)

	CH4(g)          -28.96    -32.01   -3.05  CH4
	CO2(g)           -1.00     -3.02   -2.02  CO2	 Pressure   0.1 atm, phi 1.000.
	H2(g)           -11.15    -14.23   -3.07  H2
	H2O(g)            0.19     -0.00   -0.19  H2O
	O2(g)           -38.82    -41.93   -3.11  O2


Reaction step 7.

Using solution 1.	
Using pure phase assemblage 1.	
Using temperature 1.	

-------------------------------Phase assemblage--------------------------------

                                                      Moles in assemblage
Phase               SI  log IAP  log K(T, P)   Initial       Final       Delta

CO2(g)           -1.00    -3.06     -2.06    1.000e+01   9.999e+00  -8.884e-04

-----------------------------Solution composition------------------------------

	Elements           Molality       Moles

	C                 8.884e-04   8.884e-04

----------------------------Description of solution----------------------------

                                       pH  =   4.853      Charge balance
                                       pe  =   0.513      Adjusted to redox equilibrium
       Specific Conductance (uS/cm, 135 oC) = 24
                          Density (g/cm3)  =   0.93056
                        Activity of water  =   1.000
                           Ionic strength  =   1.411e-05
                       Mass of water (kg)  =   1.000e+00
                 Total alkalinity (eq/kg)  =   2.208e-10
                       Total CO2 (mol/kg)  =   8.884e-04
                      Temperature (deg C)  = 135.00
                           Pressure (atm)  =  3.09
                  Electrical balance (eq)  =  -2.208e-10
 Percent error, 100*(Cat-|An|)/(Cat+|An|)  =  -0.00
                               Iterations  =  14
                                  Total H  = 1.110124e+02
                                  Total O  = 5.550799e+01

----------------------------Distribution of species----------------------------

                                               Log       Log       Log    mole V
   Species          Molality    Activity  Molality  Activity     Gamma   cm3/mol

   H+              1.411e-05   1.403e-05    -4.850    -4.853    -0.002      0.00
   OH-             1.206e-07   1.199e-07    -6.919    -6.921    -0.002    -10.66
   H2O             5.551e+01   1.000e+00     1.744    -0.000     0.000     19.36
C(-4)         1.203e-34
   CH4             1.203e-34   1.203e-34   -33.920   -33.920     0.000     32.22
C(4)          8.884e-04
   CO2             8.745e-04   8.745e-04    -3.058    -3.058     0.000     18.94
   HCO3-           1.399e-05   1.391e-05    -4.854    -4.857    -0.002     18.11
   CO3-2           5.124e-11   5.009e-11   -10.290   -10.300    -0.010    -16.22
H(0)          1.180e-14
   H2              5.899e-15   5.899e-15   -14.229   -14.229     0.000     28.56
O(0)          2.043e-38
   O2              1.021e-38   1.021e-38   -37.991   -37.991     0.000     35.24

------------------------------Saturation indices-------------------------------

	Phase               SI   log IAP   log K(408 K,   3 atm)

	CH4(g)          -30.91    -33.92   -3.01  CH4
	CO2(g)           -1.00     -3.06   -2.06  CO2	 Pressure   0.1 atm, phi 1.000.
	H2(g)           -11.21    -14.23   -3.02  H2
	H2O(g)            0.48     -0.00   -0.48  H2O
	O2(g)           -34.92    -37.99   -3.08  O2


Reaction step 8.

Using solution 1.	
Using pure phase assemblage 1.	
Using temperature 1.	

-------------------------------Phase assemblage--------------------------------

                                                      Moles in assemblage
Phase               SI  log IAP  log K(T, P)   Initial       Final       Delta

CO2(g)           -1.00    -3.08     -2.07    1.000e+01   9.999e+00  -8.489e-04

-----------------------------Solution composition------------------------------

	Elements           Molality       Moles

	C                 8.489e-04   8.489e-04

----------------------------Description of solution----------------------------

                                       pH  =   4.946      Charge balance
                                       pe  =   4.951      Adjusted to redox equilibrium
       Specific Conductance (uS/cm, 156 oC) = 23
                          Density (g/cm3)  =   0.91071
                        Activity of water  =   1.000
                           Ionic strength  =   1.139e-05
                       Mass of water (kg)  =   1.000e+00
                 Total alkalinity (eq/kg)  =   2.208e-10
                       Total CO2 (mol/kg)  =   8.489e-04
                      Temperature (deg C)  = 156.67
                           Pressure (atm)  =  5.60
                  Electrical balance (eq)  =  -2.208e-10
 Percent error, 100*(Cat-|An|)/(Cat+|An|)  =  -0.00
                               Iterations  =  10
                                  Total H  = 1.110124e+02
                                  Total O  = 5.550791e+01

----------------------------Distribution of species----------------------------

                                               Log       Log       Log    mole V
   Species          Molality    Activity  Molality  Activity     Gamma   cm3/mol

   H+              1.139e-05   1.133e-05    -4.943    -4.946    -0.002      0.00
   OH-             2.428e-07   2.415e-07    -6.615    -6.617    -0.002    -15.03
   H2O             5.551e+01   1.000e+00     1.744    -0.000     0.000     19.78
C(-4)         0.000e+00
   CH4             0.000e+00   0.000e+00   -72.141   -72.141     0.000     32.22
C(4)          8.489e-04
   CO2             8.378e-04   8.378e-04    -3.077    -3.077     0.000     18.22
   HCO3-           1.115e-05   1.109e-05    -4.953    -4.955    -0.002     13.54
   CO3-2           3.721e-11   3.641e-11   -10.429   -10.439    -0.009    -24.56
H(0)          9.162e-24
   H2              4.581e-24   4.581e-24   -23.339   -23.339     0.000     28.56
O(0)          1.179e-16
   O2              5.893e-17   5.893e-17   -16.230   -16.230     0.000     36.24

------------------------------Saturation indices-------------------------------

	Phase               SI   log IAP   log K(429 K,   6 atm)

	CH4(g)          -69.20    -72.14   -2.94  CH4
	CO2(g)           -1.00     -3.08   -2.07  CO2	 Pressure   0.1 atm, phi 1.000.
	H2(g)           -20.38    -23.34   -2.96  H2
	H2O(g)            0.73     -0.00   -0.73  H2O
	O2(g)           -13.21    -16.23   -3.02  O2


Reaction step 9.

Using solution 1.	
Using pure phase assemblage 1.	
Using temperature 1.	

-------------------------------Phase assemblage--------------------------------

                                                      Moles in assemblage
Phase               SI  log IAP  log K(T, P)   Initial       Final       Delta

CO2(g)           -1.01    -3.08     -2.07    1.000e+01   9.999e+00  -8.460e-04

-----------------------------Solution composition------------------------------

	Elements           Molality       Moles

	C                 8.460e-04   8.460e-04

----------------------------Description of solution----------------------------

                                       pH  =   5.036      Charge balance
                                       pe  =   5.166      Adjusted to redox equilibrium
       Specific Conductance (uS/cm, 178 oC) = 22
                          Density (g/cm3)  =   0.88880
                        Activity of water  =   1.000
                           Ionic strength  =   9.244e-06
                       Mass of water (kg)  =   1.000e+00
                 Total alkalinity (eq/kg)  =   2.208e-10
                       Total CO2 (mol/kg)  =   8.460e-04
                      Temperature (deg C)  = 178.33
                           Pressure (atm)  =  9.54
                  Electrical balance (eq)  =  -2.208e-10
 Percent error, 100*(Cat-|An|)/(Cat+|An|)  =  -0.00
                               Iterations  =  10
                                  Total H  = 1.110124e+02
                                  Total O  = 5.550791e+01

----------------------------Distribution of species----------------------------

                                               Log       Log       Log    mole V
   Species          Molality    Activity  Molality  Activity     Gamma   cm3/mol

   H+              9.244e-06   9.196e-06    -5.034    -5.036    -0.002      0.00
   OH-             4.336e-07   4.314e-07    -6.363    -6.365    -0.002    -21.28
   H2O             5.551e+01   1.000e+00     1.744    -0.000     0.000     20.27
C(-4)         0.000e+00
   CH4             0.000e+00   0.000e+00   -76.444   -76.444     0.000     32.22
C(4)          8.460e-04
   CO2             8.372e-04   8.372e-04    -3.077    -3.077     0.000     17.69
   HCO3-           8.810e-06   8.764e-06    -5.055    -5.057    -0.002      6.98
   CO3-2           2.502e-11   2.450e-11   -10.602   -10.611    -0.009    -36.50
H(0)          2.016e-24
   H2              1.008e-24   1.008e-24   -23.997   -23.997     0.000     28.55
O(0)          3.864e-12
   O2              1.932e-12   1.932e-12   -11.714   -11.714     0.000     37.53

------------------------------Saturation indices-------------------------------

	Phase               SI   log IAP   log K(451 K,  10 atm)

	CH4(g)          -73.59    -76.44   -2.86  CH4
	CO2(g)           -1.01     -3.08   -2.07  CO2	 Pressure   0.1 atm, phi 1.000.
	H2(g)           -21.11    -24.00   -2.89  H2
	H2O(g)            0.96     -0.00   -0.96  H2O
	O2(g)            -8.76    -11.71   -2.96  O2


Reaction step 10.

Using solution 1.	
Using pure phase assemblage 1.	
Using temperature 1.	

-------------------------------Phase assemblage--------------------------------

                                                      Moles in assemblage
Phase               SI  log IAP  log K(T, P)   Initial       Final       Delta

CO2(g)           -1.01    -3.06     -2.05    1.000e+01   9.999e+00  -8.738e-04

-----------------------------Solution composition------------------------------

	Elements           Molality       Moles

	C                 8.738e-04   8.738e-04

----------------------------Description of solution----------------------------

                                       pH  =   5.123      Charge balance
                                       pe  =   5.077      Adjusted to redox equilibrium
       Specific Conductance (uS/cm, 200 oC) = 21
                          Density (g/cm3)  =   0.86469
                        Activity of water  =   1.000
                           Ionic strength  =   7.570e-06
                       Mass of water (kg)  =   1.000e+00
                 Total alkalinity (eq/kg)  =   2.208e-10
                       Total CO2 (mol/kg)  =   8.738e-04
                      Temperature (deg C)  = 200.00
                           Pressure (atm)  = 15.38
                  Electrical balance (eq)  =  -2.208e-10
 Percent error, 100*(Cat-|An|)/(Cat+|An|)  =  -0.00
                               Iterations  =  10
                                  Total H  = 1.110124e+02
                                  Total O  = 5.550796e+01

----------------------------Distribution of species----------------------------

                                               Log       Log       Log    mole V
   Species          Molality    Activity  Molality  Activity     Gamma   cm3/mol

   H+              7.569e-06   7.531e-06    -5.121    -5.123    -0.002      0.00
   OH-             6.918e-07   6.883e-07    -6.160    -6.162    -0.002    -30.32
   H2O             5.551e+01   1.000e+00     1.744    -0.000     0.000     20.84
C(-4)         0.000e+00
   CH4             0.000e+00   0.000e+00   -78.161   -78.161     0.000     32.22
C(4)          8.738e-04
   CO2             8.669e-04   8.669e-04    -3.062    -3.062     0.000     17.31
   HCO3-           6.878e-06   6.843e-06    -5.163    -5.165    -0.002     -2.53
   CO3-2           1.562e-11   1.531e-11   -10.806   -10.815    -0.009    -53.79
H(0)          1.861e-24
   H2              9.306e-25   9.306e-25   -24.031   -24.031     0.000     28.55
O(0)          3.655e-09
   O2              1.828e-09   1.828e-09    -8.738    -8.738     0.000     39.26

------------------------------Saturation indices-------------------------------

	Phase               SI   log IAP   log K(473 K,  15 atm)

	CH4(g)          -75.40    -78.16   -2.76  CH4
	CO2(g)           -1.01     -3.06   -2.05  CO2	 Pressure   0.1 atm, phi 1.000.
	H2(g)           -21.22    -24.03   -2.81  H2
	H2O(g)            1.16     -0.00   -1.16  H2O
	O2(g)            -5.86     -8.74   -2.88  O2


------------------
End of simulation.
------------------

------------------------------------
Reading input data for simulation 3.
------------------------------------

------------------------------
End of Run after 0.05 Seconds.
------------------------------

