   Input file: CO2_Na2SO4
  Output file: CO2_Na2SO4.out
Database file: ../database/pitzer.dat

------------------
Reading data base.
------------------

	SOLUTION_MASTER_SPECIES
	SOLUTION_SPECIES
	PHASES
	PITZER
	EXCHANGE_MASTER_SPECIES
	EXCHANGE_SPECIES
	SURFACE_MASTER_SPECIES
	SURFACE_SPECIES
	END
------------------------------------
Reading input data for simulation 1.
------------------------------------

	DATABASE ../database/pitzer.dat
	PITZER
	 lamda # in Pitzer.dat
	 Na+  CO2 0.08
WARNING: Redefinition of parameter, Na+ CO2

	zeta
	  Na+       SO4-2     CO2     -0.02
WARNING: Redefinition of parameter, Na+ SO4-2 CO2

	SOLUTION_SPECIES
	Na+ = Na+
		gamma	4.0	0.075
		dw	 1.33e-9
		millero -3.46 0.1092 -0.000768 2.698 -0.106 0.001651
		vm -2.15 0.0193 2.23e-4  6.2e-3 0.015 -2.74e-4  -0.9e-3  0.35 # NaCl.xls, Laliberte, 2009. Halite solubility
	Cl- = Cl-
		gamma	3.5	0.015
		dw	 2.03e-9
		millero 16.37 0.0896 -0.001264 -1.494 0.034 -0.000621
		vm 16.26 0.104 -1.25e-3  0.467 -0.027 2.95e-4  -1e-3  0.04 # 0-100 oC, HCl.xls, Laliberte, 2009. Halite solubility
	SO4-2 = SO4-2
		gamma	5.0	-0.04
		dw	 1.07e-9
		millero 9.26 0.284 -0.003808 0.4348 -0.0099143 -8.4762e-05
		vm 9.55 0.297 -3e-3  2.06 -0.08 7.08e-4  -9e-3  0.017 # Na2SO4.xls, Laliberte, 2009; Phulela and Pitzer, 1986; Gypsum/Anhydrite solubility.  0-200 oC, 1-1000 atm.
	CO3-2 + 2 H+ = CO2 + H2O
		log_k	16.681
		delta_h -5.738	kcal
		analytical_expression	464.1965	0.09344813	-26986.16	-165.75951	2248628.9
		dw	 1.92e-9
		vm   26.5 -0.066   0  0 0 0 -9.7E-03 # Data in Duan et al., 2006, MC 98, 131. 1-100 oC, 1-700 atm.
	2 H2O = O2 + 4 H+ + 4 e-
		log_k	-86.08
		delta_h 134.79 kcal
		dw	 2.35e-9
		vm 35 # Pray et al., 1952, IEC 44. 1146
	2 H+ + 2 e- = H2
		log_k	-3.15
		delta_h -1.759 kcal
		dw	 5.13e-9
		vm 20 # Pray et al., 1952, IEC 44. 1146
	CO3-2 + 10 H+ + 8 e- = CH4 + 3 H2O
		log_k	41.071
		delta_h -61.039 kcal
		dw	 1.85e-9
		vm 33
	PHASES
	CO2(g)
		CO2 = CO2
		log_k	-1.468
		delta_h -4.776 kcal
		analytical_expression	108.3865	0.01985076	-6919.53	-40.45154	669365.0
		t_c  304.2 # critical T, K
		p_c   72.80 # critical P, atm
		omega 0.225 #  acentric factor
	O2(g)
		O2 = O2
		log_k   -2.8983
		analytical_expression -7.5001 7.8981e-003 0.0 0.0 2.0027e+005
		T_c  154.6 # critical T, K
		p_c   49.80 # critical P, atm
		omega 0.021 #  acentric factor
	H2(g)
		H2 = H2
		log_k	   -3.1050
		delta_h -4.184  kJ
		analytical_expression   -9.3114e+000    4.6473e-003   -4.9335e+001    1.4341e+000    1.2815e+005
		t_c  33.2 # critical T, K
		p_c   12.80 # critical P, atm
		omega 0.225 #  acentric factor
	CH4(g)
		CH4 = CH4
		log_k	   -2.8502
		analytical_expression -2.4027e+001 4.7146e-003 3.7227e+002 6.4264e+000 2.3362e+005
		T_c  190.6 # critical T, K
		p_c   45.40 # critical P, atm
		omega 0.008 #  acentric factor
	Mirabilite
		Na2SO4:10H2O  =  SO4-2 + 2 Na+ + 10 H2O
		log_k	   -1.214
		analytical_expression       -3862.234   -1.19856    93713.54    1577.756    0.
		vm  216.2
	H2O(g)
		H2O = H2O
		log_k  1.506
	 delta_h -44.03 kJ
		T_c  647.3 # critical T, K
		p_c  217.60 # critical P, atm
		omega 0.344 #  acentric factor
		analytical_expression   -16.5066 -2.0013E-3  2710.7  3.7646  0 2.24E-6
	SOLUTION 1
	 pH 7 charge
	 Na 2e3
	 S(6) 1e3
	 temp 25
	EQUILIBRIUM_PHASES
	 CO2(g) 1.9
	GAS_PHASE 1
	     fixed_volume
	     CO2(g) 0
		 H2O(g) 0
	REACTION_TEMPERATURE
	 25 160 in 10
	USER_GRAPH
	 -plot_csv_file CO2_Na2SO4.dat
	 -axis_titles "Temp / oC" "CO2 solubility at 80 bar / (mol/kgw)"
	 -connect_simulations false
	 10 graph_x tc
	 20 graph_y tot("C")
	END
-------------------------------------------
Beginning of initial solution calculations.
-------------------------------------------

Initial solution 1.	

-----------------------------Solution composition------------------------------

	Elements           Molality       Moles

	Na                2.000e+00   2.000e+00
	S(6)              1.000e+00   1.000e+00

----------------------------Description of solution----------------------------

                                       pH  =   7.385      Charge balance
                                       pe  =   4.000    
       Specific Conductance (uS/cm, 25 oC) = 35419
                          Density (g/cm3)  =   1.11243
                        Activity of water  =   0.966
                           Ionic strength  =   3.000e+00
                       Mass of water (kg)  =   1.000e+00
                 Total alkalinity (eq/kg)  =   3.850e-15
                    Total carbon (mol/kg)  =   0.000e+00
                       Total CO2 (mol/kg)  =   0.000e+00
                      Temperature (deg C)  =  25.00
                  Electrical balance (eq)  =  -8.343e-10
 Percent error, 100*(Cat-|An|)/(Cat+|An|)  =  -0.00
                               Iterations  =  11
                         Gamma iterations  =   4
                      Osmotic coefficient  =   0.64082
                         Density of water  =   0.99706
                                  Total H  = 1.110124e+02
                                  Total O  = 5.950622e+01

----------------------------Distribution of species----------------------------

                                                           MacInnes   MacInnes
	                               MacInnes    Log       Log         Log 
   Species          Molality    Activity  Molality  Activity     Gamma   cm3/mol

   OH-             4.328e-07   2.357e-07    -6.364    -6.628    -0.264     -2.86
   H+              1.014e-07   4.117e-08    -6.994    -7.385    -0.391      0.00
   H2              1.200e-26   1.200e-26   -25.921   -25.921     0.000     20.00
   H2O             5.551e+01   9.660e-01     1.744    -0.015     0.000     18.07
   O2              0.000e+00   0.000e+00   -40.568   -40.568     0.000     35.00
Na            2.000e+00
   Na+             2.000e+00   8.974e-01     0.301    -0.047    -0.348      0.35
S(6)          1.000e+00
   SO4-2           1.000e+00   4.278e-02    -0.000    -1.369    -1.369     22.91
   HSO4-           3.314e-07   1.678e-07    -6.480    -6.775    -0.296     (0)  

------------------------------Saturation indices-------------------------------

	Phase               SI   log IAP   log K(298 K,   1 atm)

	H2(g)           -22.82    -25.92   -3.10  H2
	H2O(g)           -1.52     -0.02    1.50  H2O
	Mirabilite       -0.40     -1.61   -1.21  Na2SO4:10H2O
	O2(g)           -37.68    -40.57   -2.89  O2


-----------------------------------------
Beginning of batch-reaction calculations.
-----------------------------------------

Reaction step 1.

WARNING: Numerical method failed, switching to numerical derivatives.
Using solution 1.	
Using pure phase assemblage 1.	
Using gas phase 1.	
Using temperature 1.	

-----------------------------------Gas phase-----------------------------------

Total pressure: 65.13      atmospheres          (Peng-Robinson calculation)
    Gas volume:   1.00e+00 liters
  Molar volume:   1.09e-01 liters/mole
   P * Vm / RT:  0.29050  (Compressibility Factor Z) 

                                                        Moles in gas
                                            ----------------------------------
Component         log P           P    phi     Initial       Final       Delta

CO2(g)             1.81   6.502e+01  0.657   0.000e+00   9.149e+00   9.149e+00
H2O(g)            -0.97   1.065e-01  0.292   0.000e+00   1.498e-02   1.498e-02

-------------------------------Phase assemblage--------------------------------

                                                      Moles in assemblage
Phase               SI  log IAP  log K(T, P)   Initial       Final       Delta

CO2(g)            1.60     0.13     -1.47    1.000e+01           0  -1.000e+01

-----------------------------Solution composition------------------------------

	Elements           Molality       Moles

	C                 8.516e-01   8.513e-01
	Na                2.001e+00   2.000e+00
	S                 1.000e+00   1.000e+00

----------------------------Description of solution----------------------------

                                       pH  =   3.444      Charge balance
                                       pe  =   4.000      Adjusted to redox equilibrium
       Specific Conductance (uS/cm, 25 oC) = 42296
                          Density (g/cm3)  =   1.12773
                        Activity of water  =   0.945
                           Ionic strength  =   2.999e+00
                       Mass of water (kg)  =   9.997e-01
                 Total alkalinity (eq/kg)  =   1.871e-13
                       Total CO2 (mol/kg)  =   8.516e-01
                      Temperature (deg C)  =  25.00
                           Pressure (atm)  = 65.13
                  Electrical balance (eq)  =  -8.383e-10
 Percent error, 100*(Cat-|An|)/(Cat+|An|)  =  -0.00
                               Iterations  = 140
                         Gamma iterations  =   6
                      Osmotic coefficient  =   0.81601
                         Density of water  =   0.99706
                                  Total H  = 1.109825e+02
                                  Total O  = 6.119383e+01

----------------------------Distribution of species----------------------------

                                                           MacInnes   MacInnes
	                               MacInnes    Log       Log         Log 
   Species          Molality    Activity  Molality  Activity     Gamma   cm3/mol

   H+              8.902e-04   3.596e-04    -3.051    -3.444    -0.394      0.00
   OH-             5.075e-11   2.787e-11   -10.295   -10.555    -0.260     -2.67
   H2              8.685e-19   8.685e-19   -18.061   -18.061     0.000     20.00
   H2O             5.551e+01   9.449e-01     1.744    -0.025     0.000     18.02
   O2              0.000e+00   0.000e+00   -56.351   -56.351     0.000     35.00
C(4)          8.516e-01
   CO2             8.474e-01   1.361e+00    -0.072     0.134     0.206     25.47
   HCO3-           4.216e-03   1.681e-03    -2.375    -2.775    -0.399     31.57
   CO3-2           4.059e-09   2.303e-10    -8.392    -9.638    -1.246      3.67
   CH4             9.328e-36   9.328e-36   -35.030   -35.030     0.000     33.00
Na            2.001e+00
   Na+             2.001e+00   1.004e+00     0.301     0.002    -0.300      0.39
S(6)          1.000e+00
   SO4-2           9.970e-01   4.932e-02    -0.001    -1.307    -1.306     23.39
   HSO4-           3.325e-03   1.689e-03    -2.478    -2.772    -0.294     (0)  

------------------------------Saturation indices-------------------------------

	Phase               SI   log IAP   log K(298 K,  65 atm)

	Burkeite        -11.58    -12.24   -0.66  Na6CO3(SO4)2
	CH4(g)          -32.24    -35.03   -2.79  CH4
	CO2(g)            1.59      0.13   -1.45  CO2	 Pressure  65.0 atm, phi 0.657.
	H2(g)           -14.96    -18.06   -3.10  H2
	H2O(g)           -1.51     -0.02    1.48  H2O	 Pressure   0.1 atm, phi 0.292.
	Mirabilite       -0.35     -1.55   -1.20  Na2SO4:10H2O
	Nahcolite        -2.33    -13.08  -10.75  NaHCO3
	Natron           -8.85     -9.88   -1.04  Na2CO3:10H2O
	O2(g)           -53.42    -56.35   -2.93  O2
	Trona           -11.45    -22.76  -11.31  Na3H(CO3)2:2H2O


Reaction step 2.

Using solution 1.	
Using pure phase assemblage 1.	
Using gas phase 1.	
Using temperature 1.	

-----------------------------------Gas phase-----------------------------------

Total pressure: 79.86      atmospheres          (Peng-Robinson calculation)
    Gas volume:   1.00e+00 liters
  Molar volume:   1.48e-01 liters/mole
   P * Vm / RT:  0.45860  (Compressibility Factor Z) 

                                                        Moles in gas
                                            ----------------------------------
Component         log P           P    phi     Initial       Final       Delta

CO2(g)             1.90   7.966e+01  0.649   0.000e+00   6.760e+00   6.760e+00
H2O(g)            -0.70   2.000e-01  0.364   0.000e+00   1.697e-02   1.697e-02

-------------------------------Phase assemblage--------------------------------

                                                      Moles in assemblage
Phase               SI  log IAP  log K(T, P)   Initial       Final       Delta

CO2(g)            1.66     0.06     -1.61    1.000e+01   2.528e+00  -7.472e+00

-----------------------------Solution composition------------------------------

	Elements           Molality       Moles

	C                 7.131e-01   7.128e-01
	Na                2.001e+00   2.000e+00
	S                 1.000e+00   1.000e+00

----------------------------Description of solution----------------------------

                                       pH  =   3.560      Charge balance
                                       pe  =   4.000      Adjusted to redox equilibrium
       Specific Conductance (uS/cm, 40 oC) = 58788
                          Density (g/cm3)  =   1.11962
                        Activity of water  =   0.947
                           Ionic strength  =   2.998e+00
                       Mass of water (kg)  =   9.996e-01
                 Total alkalinity (eq/kg)  =  -1.561e-13
                       Total CO2 (mol/kg)  =   7.131e-01
                      Temperature (deg C)  =  40.00
                           Pressure (atm)  = 79.86
                  Electrical balance (eq)  =  -8.187e-10
 Percent error, 100*(Cat-|An|)/(Cat+|An|)  =  -0.00
                               Iterations  =  59
                         Gamma iterations  =   6
                      Osmotic coefficient  =   0.81355
                         Density of water  =   0.99221
                                  Total H  = 1.109785e+02
                                  Total O  = 6.091487e+01

----------------------------Distribution of species----------------------------

                                                           MacInnes   MacInnes
	                               MacInnes    Log       Log         Log 
   Species          Molality    Activity  Molality  Activity     Gamma   cm3/mol

   H+              7.273e-04   2.757e-04    -3.138    -3.560    -0.421      0.00
   OH-             1.936e-10   1.083e-10    -9.713    -9.965    -0.252     -3.03
   H2              4.389e-19   4.389e-19   -18.358   -18.358     0.000     20.00
   H2O             5.551e+01   9.470e-01     1.744    -0.024     0.000     18.09
   O2              0.000e+00   0.000e+00   -51.155   -51.155     0.000     35.00
C(4)          7.131e-01
   CO2             7.081e-01   1.137e+00    -0.150     0.056     0.206     24.62
   HCO3-           4.959e-03   2.091e-03    -2.305    -2.680    -0.375     30.93
   CO3-2           8.155e-09   4.837e-10    -8.089    -9.315    -1.227      3.46
   CH4             9.455e-39   9.455e-39   -38.024   -38.024     0.000     33.00
Na            2.001e+00
   Na+             2.001e+00   1.005e+00     0.301     0.002    -0.299      0.96
S(6)          1.000e+00
   SO4-2           9.962e-01   5.273e-02    -0.002    -1.278    -1.276     24.42
   HSO4-           4.232e-03   2.123e-03    -2.373    -2.673    -0.300     (0)  

------------------------------Saturation indices-------------------------------

	Phase               SI   log IAP   log K(313 K,  80 atm)

	Burkeite        -11.21    -11.86   -0.65  Na6CO3(SO4)2
	CH4(g)          -35.15    -38.02   -2.87  CH4
	CO2(g)            1.66      0.06   -1.61  CO2	 Pressure  79.7 atm, phi 0.649.
	H2(g)           -15.23    -18.36   -3.13  H2
	H2O(g)           -1.14     -0.02    1.11  H2O	 Pressure   0.2 atm, phi 0.364.
	Mirabilite       -0.91     -1.51   -0.60  Na2SO4:10H2O
	Nahcolite        -2.12    -12.87  -10.75  NaHCO3
	Natron           -8.47     -9.55   -1.07  Na2CO3:10H2O
	O2(g)           -48.12    -51.15   -3.03  O2
	Trona           -10.93    -22.23  -11.30  Na3H(CO3)2:2H2O


Reaction step 3.

Using solution 1.	
Using pure phase assemblage 1.	
Using gas phase 1.	
Using temperature 1.	

-----------------------------------Gas phase-----------------------------------

Total pressure: 79.97      atmospheres          (Peng-Robinson calculation)
    Gas volume:   1.00e+00 liters
  Molar volume:   2.05e-01 liters/mole
   P * Vm / RT:  0.60831  (Compressibility Factor Z) 

                                                        Moles in gas
                                            ----------------------------------
Component         log P           P    phi     Initial       Final       Delta

CO2(g)             1.90   7.964e+01  0.702   0.000e+00   4.862e+00   4.862e+00
H2O(g)            -0.48   3.306e-01  0.468   0.000e+00   2.018e-02   2.018e-02

-------------------------------Phase assemblage--------------------------------

                                                      Moles in assemblage
Phase               SI  log IAP  log K(T, P)   Initial       Final       Delta

CO2(g)            1.70    -0.03     -1.73    1.000e+01   4.554e+00  -5.446e+00

-----------------------------Solution composition------------------------------

	Elements           Molality       Moles

	C                 5.846e-01   5.843e-01
	Na                2.001e+00   2.000e+00
	S                 1.000e+00   1.000e+00

----------------------------Description of solution----------------------------

                                       pH  =   3.714      Charge balance
                                       pe  =   4.000      Adjusted to redox equilibrium
       Specific Conductance (uS/cm, 55 oC) = 76442
                          Density (g/cm3)  =   1.10985
                        Activity of water  =   0.949
                           Ionic strength  =   2.997e+00
                       Mass of water (kg)  =   9.995e-01
                 Total alkalinity (eq/kg)  =  -1.461e-13
                       Total CO2 (mol/kg)  =   5.846e-01
                      Temperature (deg C)  =  55.00
                           Pressure (atm)  = 79.97
                  Electrical balance (eq)  =  -8.215e-10
 Percent error, 100*(Cat-|An|)/(Cat+|An|)  =  -0.00
                               Iterations  =  48
                         Gamma iterations  =   6
                      Osmotic coefficient  =   0.81073
                         Density of water  =   0.98569
                                  Total H  = 1.109721e+02
                                  Total O  = 6.065461e+01

----------------------------Distribution of species----------------------------

                                                           MacInnes   MacInnes
	                               MacInnes    Log       Log         Log 
   Species          Molality    Activity  Molality  Activity     Gamma   cm3/mol

   H+              5.519e-04   1.934e-04    -3.258    -3.714    -0.455      0.00
   OH-             7.195e-10   4.118e-10    -9.143    -9.385    -0.242     -3.54
   H2              1.904e-19   1.904e-19   -18.720   -18.720     0.000     20.00
   H2O             5.551e+01   9.490e-01     1.744    -0.023     0.000     18.21
   O2              0.000e+00   0.000e+00   -46.237   -46.237     0.000     35.00
C(4)          5.846e-01
   CO2             5.790e-01   9.295e-01    -0.237    -0.032     0.206     23.64
   HCO3-           5.565e-03   2.493e-03    -2.255    -2.603    -0.349     31.23
   CO3-2           1.533e-08   9.515e-10    -7.814    -9.022    -1.207      3.21
   CH4             0.000e+00   0.000e+00   -41.215   -41.215     0.000     33.00
Na            2.001e+00
   Na+             2.001e+00   9.930e-01     0.301    -0.003    -0.304      1.29
S(6)          1.000e+00
   SO4-2           9.955e-01   5.651e-02    -0.002    -1.248    -1.246     25.14
   HSO4-           5.013e-03   2.494e-03    -2.300    -2.603    -0.303     (0)  

------------------------------Saturation indices-------------------------------

	Phase               SI   log IAP   log K(328 K,  80 atm)

	Burkeite        -10.88    -11.54   -0.66  Na6CO3(SO4)2
	CH4(g)          -38.27    -41.22   -2.94  CH4
	CO2(g)            1.70     -0.03   -1.73  CO2	 Pressure  79.6 atm, phi 0.702.
	H2(g)           -15.58    -18.72   -3.14  H2
	H2O(g)           -0.81     -0.02    0.79  H2O	 Pressure   0.3 atm, phi 0.468.
	Mirabilite       -1.28     -1.48   -0.20  Na2SO4:10H2O
	Nahcolite        -1.99    -12.74  -10.75  NaHCO3
	Natron           -8.19     -9.26   -1.06  Na2CO3:10H2O
	O2(g)           -43.14    -46.24   -3.09  O2
	Trona           -10.50    -21.81  -11.31  Na3H(CO3)2:2H2O


Reaction step 4.

Using solution 1.	
Using pure phase assemblage 1.	
Using gas phase 1.	
Using temperature 1.	

-----------------------------------Gas phase-----------------------------------

Total pressure: 80.26      atmospheres          (Peng-Robinson calculation)
    Gas volume:   1.00e+00 liters
  Molar volume:   2.41e-01 liters/mole
   P * Vm / RT:  0.68592  (Compressibility Factor Z) 

                                                        Moles in gas
                                            ----------------------------------
Component         log P           P    phi     Initial       Final       Delta

CO2(g)             1.90   7.968e+01  0.742   0.000e+00   4.126e+00   4.126e+00
H2O(g)            -0.24   5.741e-01  0.532   0.000e+00   2.972e-02   2.972e-02

-------------------------------Phase assemblage--------------------------------

                                                      Moles in assemblage
Phase               SI  log IAP  log K(T, P)   Initial       Final       Delta

CO2(g)            1.73    -0.10     -1.83    1.000e+01   5.376e+00  -4.624e+00

-----------------------------Solution composition------------------------------

	Elements           Molality       Moles

	C                 4.989e-01   4.986e-01
	Na                2.001e+00   2.000e+00
	S                 1.001e+00   1.000e+00

----------------------------Description of solution----------------------------

                                       pH  =   3.885      Charge balance
                                       pe  =   4.000      Adjusted to redox equilibrium
       Specific Conductance (uS/cm, 70 oC) = 95374
                          Density (g/cm3)  =   1.09968
                        Activity of water  =   0.950
                           Ionic strength  =   2.997e+00
                       Mass of water (kg)  =   9.994e-01
                 Total alkalinity (eq/kg)  =  -1.952e-13
                       Total CO2 (mol/kg)  =   4.989e-01
                      Temperature (deg C)  =  70.00
                           Pressure (atm)  = 80.26
                  Electrical balance (eq)  =  -8.220e-10
 Percent error, 100*(Cat-|An|)/(Cat+|An|)  =  -0.00
                               Iterations  =  46
                         Gamma iterations  =   6
                      Osmotic coefficient  =   0.81392
                         Density of water  =   0.97778
                                  Total H  = 1.109530e+02
                                  Total O  = 6.047366e+01

----------------------------Distribution of species----------------------------

                                                           MacInnes   MacInnes
	                               MacInnes    Log       Log         Log 
   Species          Molality    Activity  Molality  Activity     Gamma   cm3/mol

   H+              4.067e-04   1.302e-04    -3.391    -3.885    -0.495      0.00
   OH-             2.547e-09   1.497e-09    -8.594    -8.825    -0.231     -4.16
   H2              7.688e-20   7.688e-20   -19.114   -19.114     0.000     20.00
   H2O             5.551e+01   9.500e-01     1.744    -0.022     0.000     18.36
   O2              0.000e+00   0.000e+00   -41.625   -41.625     0.000     35.00
C(4)          4.989e-01
   CO2             4.927e-01   7.909e-01    -0.307    -0.102     0.206     22.65
   HCO3-           6.226e-03   2.975e-03    -2.206    -2.527    -0.321     32.55
   CO3-2           2.776e-08   1.805e-09    -7.557    -8.744    -1.187      2.96
   CH4             0.000e+00   0.000e+00   -44.430   -44.430     0.000     33.00
Na            2.001e+00
   Na+             2.001e+00   9.754e-01     0.301    -0.011    -0.312      1.40
S(6)          1.001e+00
   SO4-2           9.948e-01   6.107e-02    -0.002    -1.214    -1.212     25.69
   HSO4-           5.820e-03   2.882e-03    -2.235    -2.540    -0.305     (0)  

------------------------------Saturation indices-------------------------------

	Phase               SI   log IAP   log K(343 K,  80 atm)

	Burkeite        -10.57    -11.24   -0.66  Na6CO3(SO4)2
	CH4(g)          -41.45    -44.43   -2.98  CH4
	CO2(g)            1.73     -0.10   -1.83  CO2	 Pressure  79.7 atm, phi 0.742.
	H2(g)           -15.98    -19.11   -3.14  H2
	H2O(g)           -0.51     -0.02    0.49  H2O	 Pressure   0.6 atm, phi 0.532.
	Mirabilite       -1.42     -1.46   -0.04  Na2SO4:10H2O
	Nahcolite        -1.89    -12.64  -10.75  NaHCO3
	Natron           -7.93     -8.99   -1.06  Na2CO3:10H2O
	O2(g)           -38.49    -41.62   -3.13  O2
	Trona           -10.14    -21.45  -11.31  Na3H(CO3)2:2H2O


Reaction step 5.

Using solution 1.	
Using pure phase assemblage 1.	
Using gas phase 1.	
Using temperature 1.	

-----------------------------------Gas phase-----------------------------------

Total pressure: 80.73      atmospheres          (Peng-Robinson calculation)
    Gas volume:   1.00e+00 liters
  Molar volume:   2.69e-01 liters/mole
   P * Vm / RT:  0.73891  (Compressibility Factor Z) 

                                                        Moles in gas
                                            ----------------------------------
Component         log P           P    phi     Initial       Final       Delta

CO2(g)             1.90   7.976e+01  0.776   0.000e+00   3.673e+00   3.673e+00
H2O(g)            -0.01   9.724e-01  0.581   0.000e+00   4.478e-02   4.478e-02

-------------------------------Phase assemblage--------------------------------

                                                      Moles in assemblage
Phase               SI  log IAP  log K(T, P)   Initial       Final       Delta

CO2(g)            1.75    -0.16     -1.90    1.000e+01   5.886e+00  -4.114e+00

-----------------------------Solution composition------------------------------

	Elements           Molality       Moles

	C                 4.422e-01   4.418e-01
	Na                2.002e+00   2.000e+00
	S                 1.001e+00   1.000e+00

----------------------------Description of solution----------------------------

                                       pH  =   4.069      Charge balance
                                       pe  =   4.000      Adjusted to redox equilibrium
       Specific Conductance (uS/cm, 85 oC) = 115092
                          Density (g/cm3)  =   1.08908
                        Activity of water  =   0.950
                           Ionic strength  =   2.996e+00
                       Mass of water (kg)  =   9.991e-01
                 Total alkalinity (eq/kg)  =  -2.747e-13
                       Total CO2 (mol/kg)  =   4.422e-01
                      Temperature (deg C)  =  85.00
                           Pressure (atm)  = 80.73
                  Electrical balance (eq)  =  -8.216e-10
 Percent error, 100*(Cat-|An|)/(Cat+|An|)  =  -0.00
                               Iterations  =  46
                         Gamma iterations  =   6
                      Osmotic coefficient  =   0.82092
                         Density of water  =   0.96864
                                  Total H  = 1.109229e+02
                                  Total O  = 6.034499e+01

----------------------------Distribution of species----------------------------

                                                           MacInnes   MacInnes
	                               MacInnes    Log       Log         Log 
   Species          Molality    Activity  Molality  Activity     Gamma   cm3/mol

   H+              2.945e-04   8.529e-05    -3.531    -4.069    -0.538      0.00
   OH-             8.580e-09   5.191e-09    -8.067    -8.285    -0.218     -4.85
   H2              2.966e-20   2.966e-20   -19.528   -19.528     0.000     20.00
   H2O             5.551e+01   9.503e-01     1.744    -0.022     0.000     18.53
   O2              5.083e-38   5.083e-38   -37.294   -37.294     0.000     35.00
C(4)          4.422e-01
   CO2             4.352e-01   6.987e-01    -0.361    -0.156     0.206     21.66
   HCO3-           6.965e-03   3.555e-03    -2.157    -2.449    -0.292     34.91
   CO3-2           4.856e-08   3.301e-09    -7.314    -8.481    -1.168      2.75
   CH4             0.000e+00   0.000e+00   -47.631   -47.631     0.000     33.00
Na            2.002e+00
   Na+             2.002e+00   9.524e-01     0.301    -0.021    -0.323      1.30
S(6)          1.001e+00
   SO4-2           9.943e-01   6.614e-02    -0.002    -1.180    -1.177     26.14
   HSO4-           6.670e-03   3.294e-03    -2.176    -2.482    -0.306     (0)  

------------------------------Saturation indices-------------------------------

	Phase               SI   log IAP   log K(358 K,  81 atm)

	Burkeite        -10.30    -10.97   -0.67  Na6CO3(SO4)2
	CH4(g)          -44.63    -47.63   -3.00  CH4
	CO2(g)            1.75     -0.16   -1.90  CO2	 Pressure  79.8 atm, phi 0.776.
	H2(g)           -16.40    -19.53   -3.12  H2
	H2O(g)           -0.25     -0.02    0.23  H2O	 Pressure   1.0 atm, phi 0.581.
	Mirabilite       -1.30     -1.44   -0.14  Na2SO4:10H2O
	Nahcolite        -1.82    -12.57  -10.75  NaHCO3
	Natron           -7.70     -8.75   -1.05  Na2CO3:10H2O
	O2(g)           -34.14    -37.29   -3.15  O2
	Trona            -9.83    -21.14  -11.31  Na3H(CO3)2:2H2O


Reaction step 6.

Using solution 1.	
Using pure phase assemblage 1.	
Using gas phase 1.	
Using temperature 1.	

-----------------------------------Gas phase-----------------------------------

Total pressure: 81.44      atmospheres          (Peng-Robinson calculation)
    Gas volume:   1.00e+00 liters
  Molar volume:   2.92e-01 liters/mole
   P * Vm / RT:  0.77789  (Compressibility Factor Z) 

                                                        Moles in gas
                                            ----------------------------------
Component         log P           P    phi     Initial       Final       Delta

CO2(g)             1.90   7.984e+01  0.804   0.000e+00   3.352e+00   3.352e+00
H2O(g)             0.20   1.592e+00  0.620   0.000e+00   6.685e-02   6.685e-02

-------------------------------Phase assemblage--------------------------------

                                                      Moles in assemblage
Phase               SI  log IAP  log K(T, P)   Initial       Final       Delta

CO2(g)            1.77    -0.20     -1.96    1.000e+01   6.243e+00  -3.757e+00

-----------------------------Solution composition------------------------------

	Elements           Molality       Moles

	C                 4.050e-01   4.044e-01
	Na                2.003e+00   2.000e+00
	S                 1.001e+00   1.000e+00

----------------------------Description of solution----------------------------

                                       pH  =   4.261      Charge balance
                                       pe  =   4.000      Adjusted to redox equilibrium
       Specific Conductance (uS/cm, 100 oC) = 135099
                          Density (g/cm3)  =   1.07797
                        Activity of water  =   0.950
                           Ionic strength  =   2.997e+00
                       Mass of water (kg)  =   9.987e-01
                 Total alkalinity (eq/kg)  =  -3.897e-13
                       Total CO2 (mol/kg)  =   4.050e-01
                      Temperature (deg C)  = 100.00
                           Pressure (atm)  = 81.44
                  Electrical balance (eq)  =  -8.207e-10
 Percent error, 100*(Cat-|An|)/(Cat+|An|)  =  -0.00
                               Iterations  =  52
                         Gamma iterations  =   6
                      Osmotic coefficient  =   0.83005
                         Density of water  =   0.95839
                                  Total H  = 1.108787e+02
                                  Total O  = 6.024822e+01

----------------------------Distribution of species----------------------------

                                                           MacInnes   MacInnes
	                               MacInnes    Log       Log         Log 
   Species          Molality    Activity  Molality  Activity     Gamma   cm3/mol

   H+              2.111e-04   5.483e-05    -3.676    -4.261    -0.585      0.00
   OH-             2.756e-08   1.717e-08    -7.560    -7.765    -0.206     -5.61
   H2              1.112e-20   1.112e-20   -19.954   -19.954     0.000     20.00
   H2O             5.551e+01   9.503e-01     1.744    -0.022     0.000     18.73
   O2              6.030e-34   6.030e-34   -33.220   -33.220     0.000     35.00
C(4)          4.050e-01
   CO2             3.972e-01   6.376e-01    -0.401    -0.195     0.206     20.68
   HCO3-           7.788e-03   4.251e-03    -2.109    -2.372    -0.263     38.34
   CO3-2           8.228e-08   5.814e-09    -7.085    -8.235    -1.151      2.68
   CH4             0.000e+00   0.000e+00   -50.799   -50.799     0.000     33.00
Na            2.003e+00
   Na+             2.003e+00   9.243e-01     0.302    -0.034    -0.336      1.00
S(6)          1.001e+00
   SO4-2           9.938e-01   7.146e-02    -0.003    -1.146    -1.143     26.57
   HSO4-           7.577e-03   3.732e-03    -2.120    -2.428    -0.308     (0)  

------------------------------Saturation indices-------------------------------

	Phase               SI   log IAP   log K(373 K,  81 atm)

	Burkeite        -10.06    -10.73   -0.67  Na6CO3(SO4)2
	CH4(g)          -47.80    -50.80   -3.00  CH4
	CO2(g)            1.77     -0.20   -1.96  CO2	 Pressure  79.8 atm, phi 0.804.
	H2(g)           -16.85    -19.95   -3.10  H2
	H2O(g)           -0.01     -0.02   -0.02  H2O	 Pressure   1.6 atm, phi 0.620.
	Mirabilite       -0.91     -1.44   -0.53  Na2SO4:10H2O
	Nahcolite        -1.78    -12.53  -10.75  NaHCO3
	Natron           -7.48     -8.53   -1.04  Na2CO3:10H2O
	O2(g)           -30.06    -33.22   -3.16  O2
	Trona            -9.56    -20.88  -11.32  Na3H(CO3)2:2H2O


Reaction step 7.

Using solution 1.	
Using pure phase assemblage 1.	
Using gas phase 1.	
Using temperature 1.	

-----------------------------------Gas phase-----------------------------------

Total pressure: 82.47      atmospheres          (Peng-Robinson calculation)
    Gas volume:   1.00e+00 liters
  Molar volume:   3.12e-01 liters/mole
   P * Vm / RT:  0.80738  (Compressibility Factor Z) 

                                                        Moles in gas
                                            ----------------------------------
Component         log P           P    phi     Initial       Final       Delta

CO2(g)             1.90   7.995e+01  0.827   0.000e+00   3.109e+00   3.109e+00
H2O(g)             0.40   2.520e+00  0.650   0.000e+00   9.800e-02   9.800e-02

-------------------------------Phase assemblage--------------------------------

                                                      Moles in assemblage
Phase               SI  log IAP  log K(T, P)   Initial       Final       Delta

CO2(g)            1.78    -0.22     -2.00    1.000e+01   6.510e+00  -3.490e+00

-----------------------------Solution composition------------------------------

	Elements           Molality       Moles

	C                 3.815e-01   3.807e-01
	Na                2.004e+00   2.000e+00
	S                 1.002e+00   1.000e+00

----------------------------Description of solution----------------------------

                                       pH  =   4.458      Charge balance
                                       pe  =   4.000      Adjusted to redox equilibrium
       Specific Conductance (uS/cm, 115 oC) = 154924
                          Density (g/cm3)  =   1.06216
                        Activity of water  =   0.950
                           Ionic strength  =   2.997e+00
                       Mass of water (kg)  =   9.981e-01
                 Total alkalinity (eq/kg)  =  -5.936e-13
                       Total CO2 (mol/kg)  =   3.815e-01
                      Temperature (deg C)  = 115.00
                           Pressure (atm)  = 82.47
                  Electrical balance (eq)  =  -8.196e-10
 Percent error, 100*(Cat-|An|)/(Cat+|An|)  =  -0.00
                               Iterations  =  48
                         Gamma iterations  =   6
                      Osmotic coefficient  =   0.84013
                         Density of water  =   0.94713
                                  Total H  = 1.108164e+02
                                  Total O  = 6.016967e+01

----------------------------Distribution of species----------------------------

                                                           MacInnes   MacInnes
	                               MacInnes    Log       Log         Log 
   Species          Molality    Activity  Molality  Activity     Gamma   cm3/mol

   H+              1.507e-04   3.480e-05    -3.822    -4.458    -0.636      0.00
   OH-             8.466e-08   5.426e-08    -7.072    -7.266    -0.193     -6.44
   H2              4.094e-21   4.094e-21   -20.388   -20.388     0.000     20.00
   O2              4.176e-30   4.176e-30   -29.379   -29.379     0.000     35.00
   H2O             5.551e+01   9.500e-01     1.744    -0.022     0.000     19.02
C(4)          3.815e-01
   CO2             3.728e-01   5.985e-01    -0.429    -0.223     0.206     19.70
   HCO3-           8.704e-03   5.075e-03    -2.060    -2.295    -0.234     42.81
   CO3-2           1.354e-07   9.872e-09    -6.868    -8.006    -1.137      2.69
   CH4             0.000e+00   0.000e+00   -53.922   -53.922     0.000     33.00
Na            2.004e+00
   Na+             2.004e+00   8.917e-01     0.302    -0.050    -0.352      0.49
S(6)          1.002e+00
   SO4-2           9.934e-01   7.676e-02    -0.003    -1.115    -1.112     26.93
   HSO4-           8.553e-03   4.198e-03    -2.068    -2.377    -0.309     (0)  

------------------------------Saturation indices-------------------------------

	Phase               SI   log IAP   log K(388 K,  82 atm)

	Burkeite         -9.86    -10.53   -0.67  Na6CO3(SO4)2
	CH4(g)          -50.93    -53.92   -2.99  CH4
	CO2(g)            1.78     -0.22   -2.00  CO2	 Pressure  79.9 atm, phi 0.827.
	H2(g)           -17.32    -20.39   -3.07  H2
	H2O(g)            0.21     -0.02   -0.24  H2O	 Pressure   2.5 atm, phi 0.650.
	Mirabilite       -0.23     -1.44   -1.21  Na2SO4:10H2O
	Nahcolite        -1.77    -12.51  -10.75  NaHCO3
	Natron           -7.29     -8.33   -1.04  Na2CO3:10H2O
	O2(g)           -26.23    -29.38   -3.15  O2
	Trona            -9.35    -20.66  -11.32  Na3H(CO3)2:2H2O


Reaction step 8.

Using solution 1.	
Using pure phase assemblage 1.	
Using gas phase 1.	
Using temperature 1.	

-----------------------------------Gas phase-----------------------------------

Total pressure: 83.92      atmospheres          (Peng-Robinson calculation)
    Gas volume:   1.00e+00 liters
  Molar volume:   3.27e-01 liters/mole
   P * Vm / RT:  0.82978  (Compressibility Factor Z) 

                                                        Moles in gas
                                            ----------------------------------
Component         log P           P    phi     Initial       Final       Delta

CO2(g)             1.90   8.006e+01  0.847   0.000e+00   2.917e+00   2.917e+00
H2O(g)             0.59   3.862e+00  0.674   0.000e+00   1.407e-01   1.407e-01

-------------------------------Phase assemblage--------------------------------

                                                      Moles in assemblage
Phase               SI  log IAP  log K(T, P)   Initial       Final       Delta

CO2(g)            1.79    -0.24     -2.03    1.000e+01   6.716e+00  -3.284e+00

-----------------------------Solution composition------------------------------

	Elements           Molality       Moles

	C                 3.681e-01   3.671e-01
	Na                2.005e+00   2.000e+00
	S                 1.003e+00   1.000e+00

----------------------------Description of solution----------------------------

                                       pH  =   4.659      Charge balance
                                       pe  =   4.000      Adjusted to redox equilibrium
       Specific Conductance (uS/cm, 130 oC) = 174046
                          Density (g/cm3)  =   1.04946
                        Activity of water  =   0.950
                           Ionic strength  =   2.999e+00
                       Mass of water (kg)  =   9.973e-01
                 Total alkalinity (eq/kg)  =   6.348e-13
                       Total CO2 (mol/kg)  =   3.681e-01
                      Temperature (deg C)  = 130.00
                           Pressure (atm)  = 83.92
                  Electrical balance (eq)  =  -8.206e-10
 Percent error, 100*(Cat-|An|)/(Cat+|An|)  =  -0.00
                               Iterations  =  50
                         Gamma iterations  =   6
                      Osmotic coefficient  =   0.85034
                         Density of water  =   0.93488
                                  Total H  = 1.107311e+02
                                  Total O  = 6.009975e+01

----------------------------Distribution of species----------------------------

                                                           MacInnes   MacInnes
	                               MacInnes    Log       Log         Log 
   Species          Molality    Activity  Molality  Activity     Gamma   cm3/mol

   H+              1.074e-04   2.191e-05    -3.969    -4.659    -0.691      0.00
   OH-             2.494e-07   1.642e-07    -6.603    -6.785    -0.182     -7.23
   H2              1.492e-21   1.492e-21   -20.826   -20.826     0.000     20.00
   O2              1.772e-26   1.772e-26   -25.752   -25.752     0.000     35.00
   H2O             5.551e+01   9.496e-01     1.744    -0.022     0.000     19.27
C(4)          3.681e-01
   CO2             3.584e-01   5.755e-01    -0.446    -0.240     0.206     18.72
   HCO3-           9.708e-03   6.038e-03    -2.013    -2.219    -0.206     48.45
   CO3-2           2.170e-07   1.614e-08    -6.663    -7.792    -1.129      3.20
   CH4             0.000e+00   0.000e+00   -56.995   -56.995     0.000     33.00
Na            2.005e+00
   Na+             2.005e+00   8.551e-01     0.302    -0.068    -0.370     -0.14
S(6)          1.003e+00
   SO4-2           9.931e-01   8.173e-02    -0.003    -1.088    -1.085     27.63
   HSO4-           9.602e-03   4.688e-03    -2.018    -2.329    -0.311     (0)  

------------------------------Saturation indices-------------------------------

	Phase               SI   log IAP   log K(403 K,  84 atm)

	Burkeite         -9.71    -10.38   -0.67  Na6CO3(SO4)2
	CH4(g)          -54.03    -57.00   -2.96  CH4
	CO2(g)            1.79     -0.24   -2.03  CO2	 Pressure  80.1 atm, phi 0.847.
	H2(g)           -17.79    -20.83   -3.04  H2
	H2O(g)            0.42     -0.02   -0.44  H2O	 Pressure   3.9 atm, phi 0.674.
	Mirabilite        0.75     -1.45   -2.19  Na2SO4:10H2O
	Nahcolite        -1.77    -12.52  -10.75  NaHCO3
	Natron           -7.11     -8.15   -1.04  Na2CO3:10H2O
	O2(g)           -22.63    -25.75   -3.13  O2
	Trona            -9.18    -20.49  -11.32  Na3H(CO3)2:2H2O


Reaction step 9.

Using solution 1.	
Using pure phase assemblage 1.	
Using gas phase 1.	
Using temperature 1.	

-----------------------------------Gas phase-----------------------------------

Total pressure: 85.91      atmospheres          (Peng-Robinson calculation)
    Gas volume:   1.00e+00 liters
  Molar volume:   3.38e-01 liters/mole
   P * Vm / RT:  0.84648  (Compressibility Factor Z) 

                                                        Moles in gas
                                            ----------------------------------
Component         log P           P    phi     Initial       Final       Delta

CO2(g)             1.90   8.017e+01  0.865   0.000e+00   2.760e+00   2.760e+00
H2O(g)             0.76   5.744e+00  0.692   0.000e+00   1.978e-01   1.978e-01

-------------------------------Phase assemblage--------------------------------

                                                      Moles in assemblage
Phase               SI  log IAP  log K(T, P)   Initial       Final       Delta

CO2(g)            1.80    -0.25     -2.05    1.000e+01   6.879e+00  -3.121e+00

-----------------------------Solution composition------------------------------

	Elements           Molality       Moles

	C                 3.627e-01   3.613e-01
	Na                2.008e+00   2.000e+00
	S                 1.004e+00   1.000e+00

----------------------------Description of solution----------------------------

                                       pH  =   4.863      Charge balance
                                       pe  =   4.000      Adjusted to redox equilibrium
       Specific Conductance (uS/cm, 145 oC) = 191906
                          Density (g/cm3)  =   1.03576
                        Activity of water  =   0.949
                           Ionic strength  =   3.001e+00
                       Mass of water (kg)  =   9.962e-01
                 Total alkalinity (eq/kg)  =   2.040e-12
                       Total CO2 (mol/kg)  =   3.627e-01
                      Temperature (deg C)  = 145.00
                           Pressure (atm)  = 85.91
                  Electrical balance (eq)  =  -8.238e-10
 Percent error, 100*(Cat-|An|)/(Cat+|An|)  =  -0.00
                               Iterations  =  50
                         Gamma iterations  =   6
                      Osmotic coefficient  =   0.86009
                         Density of water  =   0.92167
                                  Total H  = 1.106169e+02
                                  Total O  = 6.003112e+01

----------------------------Distribution of species----------------------------

                                                           MacInnes   MacInnes
	                               MacInnes    Log       Log         Log 
   Species          Molality    Activity  Molality  Activity     Gamma   cm3/mol

   H+              7.681e-05   1.372e-05    -4.115    -4.863    -0.748      0.00
   OH-             7.073e-07   4.770e-07    -6.150    -6.321    -0.171     -7.99
   H2              5.413e-22   5.413e-22   -21.267   -21.267     0.000     20.00
   O2              4.811e-23   4.811e-23   -22.318   -22.318     0.000     35.00
   H2O             5.551e+01   9.491e-01     1.744    -0.023     0.000     19.55
C(4)          3.627e-01
   CO2             3.519e-01   5.652e-01    -0.454    -0.248     0.206     17.75
   HCO3-           1.080e-02   7.148e-03    -1.967    -2.146    -0.179     55.27
   CO3-2           3.395e-07   2.545e-08    -6.469    -7.594    -1.125      4.25
   CH4             0.000e+00   0.000e+00   -60.014   -60.014     0.000     33.00
Na            2.008e+00
   Na+             2.008e+00   8.149e-01     0.303    -0.089    -0.392     -0.89
S(6)          1.004e+00
   SO4-2           9.930e-01   8.603e-02    -0.003    -1.065    -1.062     28.72
   HSO4-           1.072e-02   5.196e-03    -1.970    -2.284    -0.315     (0)  

------------------------------Saturation indices-------------------------------

	Phase               SI   log IAP   log K(418 K,  86 atm)

	Burkeite         -9.59    -10.26   -0.67  Na6CO3(SO4)2
	CH4(g)          -57.09    -60.01   -2.92  CH4
	CO2(g)            1.81     -0.25   -2.05  CO2	 Pressure  80.2 atm, phi 0.865.
	H2(g)           -18.27    -21.27   -2.99  H2
	H2O(g)            0.60     -0.02   -0.62  H2O	 Pressure   5.7 atm, phi 0.692.
	Mirabilite        2.01     -1.47   -3.48  Na2SO4:10H2O
	Nahcolite        -1.80    -12.55  -10.75  NaHCO3
	Natron           -6.96     -8.00   -1.04  Na2CO3:10H2O
	O2(g)           -19.22    -22.32   -3.09  O2
	Trona            -9.05    -20.36  -11.32  Na3H(CO3)2:2H2O


Reaction step 10.

Using solution 1.	
Using pure phase assemblage 1.	
Using gas phase 1.	
Using temperature 1.	

-----------------------------------Gas phase-----------------------------------

Total pressure: 88.57      atmospheres          (Peng-Robinson calculation)
    Gas volume:   1.00e+00 liters
  Molar volume:   3.44e-01 liters/mole
   P * Vm / RT:  0.85833  (Compressibility Factor Z) 

                                                        Moles in gas
                                            ----------------------------------
Component         log P           P    phi     Initial       Final       Delta

CO2(g)             1.90   8.026e+01  0.880   0.000e+00   2.631e+00   2.631e+00
H2O(g)             0.92   8.316e+00  0.704   0.000e+00   2.726e-01   2.726e-01

-------------------------------Phase assemblage--------------------------------

                                                      Moles in assemblage
Phase               SI  log IAP  log K(T, P)   Initial       Final       Delta

CO2(g)            1.81    -0.25     -2.06    1.000e+01   7.007e+00  -2.993e+00

-----------------------------Solution composition------------------------------

	Elements           Molality       Moles

	C                 3.639e-01   3.620e-01
	Na                2.010e+00   2.000e+00
	S                 1.005e+00   1.000e+00

----------------------------Description of solution----------------------------

                                       pH  =   5.067      Charge balance
                                       pe  =   4.000      Adjusted to redox equilibrium
       Specific Conductance (uS/cm, 160 oC) = 207863
                          Density (g/cm3)  =   1.02079
                        Activity of water  =   0.948
                           Ionic strength  =   3.004e+00
                       Mass of water (kg)  =   9.949e-01
                 Total alkalinity (eq/kg)  =   6.471e-12
                       Total CO2 (mol/kg)  =   3.639e-01
                      Temperature (deg C)  = 160.00
                           Pressure (atm)  = 88.57
                  Electrical balance (eq)  =  -8.357e-10
 Percent error, 100*(Cat-|An|)/(Cat+|An|)  =  -0.00
                               Iterations  =  52
                         Gamma iterations  =   6
                      Osmotic coefficient  =   0.86891
                         Density of water  =   0.90750
                                  Total H  = 1.104673e+02
                                  Total O  = 5.995772e+01

----------------------------Distribution of species----------------------------

                                                           MacInnes   MacInnes
	                               MacInnes    Log       Log         Log 
   Species          Molality    Activity  Molality  Activity     Gamma   cm3/mol

   H+              5.518e-05   8.573e-06    -4.258    -5.067    -0.809      0.00
   OH-             1.937e-06   1.334e-06    -5.713    -5.875    -0.162     -8.66
   O2              8.696e-20   8.696e-20   -19.061   -19.061     0.000     35.00
   H2              1.963e-22   1.963e-22   -21.707   -21.707     0.000     20.00
   H2O             5.551e+01   9.485e-01     1.744    -0.023     0.000     19.85
C(4)          3.639e-01
   CO2             3.519e-01   5.656e-01    -0.454    -0.248     0.206     16.79
   HCO3-           1.197e-02   8.402e-03    -1.922    -2.076    -0.154     63.35
   CO3-2           5.198e-07   3.866e-08    -6.284    -7.413    -1.129      6.08
   CH4             0.000e+00   0.000e+00   -62.978   -62.978     0.000     33.00
Na            2.010e+00
   Na+             2.010e+00   7.717e-01     0.303    -0.113    -0.416     -1.73
S(6)          1.005e+00
   SO4-2           9.932e-01   8.930e-02    -0.003    -1.049    -1.046     30.41
   HSO4-           1.192e-02   5.708e-03    -1.924    -2.244    -0.320     (0)  

------------------------------Saturation indices-------------------------------

	Phase               SI   log IAP   log K(433 K,  89 atm)

	Burkeite         -9.52    -10.19   -0.67  Na6CO3(SO4)2
	CH4(g)          -60.10    -62.98   -2.88  CH4
	CO2(g)            1.82     -0.25   -2.06  CO2	 Pressure  80.3 atm, phi 0.880.
	H2(g)           -18.76    -21.71   -2.95  H2
	H2O(g)            0.77     -0.02   -0.79  H2O	 Pressure   8.3 atm, phi 0.704.
	Mirabilite        3.57     -1.50   -5.07  Na2SO4:10H2O
	Nahcolite        -1.85    -12.59  -10.75  NaHCO3
	Natron           -6.83     -7.87   -1.04  Na2CO3:10H2O
	O2(g)           -16.01    -19.06   -3.05  O2
	Trona            -8.96    -20.28  -11.32  Na3H(CO3)2:2H2O


------------------
End of simulation.
------------------

------------------------------------
Reading input data for simulation 2.
------------------------------------

	SOLUTION 1
	 pH 7 charge
	 Na 4e3
	 S(6) 2e3
	 temp 25
	USE equilibrium_phases 1
	 USE reaction_temperature 1
	 USE gas_phase 1
	END
-------------------------------------------
Beginning of initial solution calculations.
-------------------------------------------

Initial solution 1.	

-----------------------------Solution composition------------------------------

	Elements           Molality       Moles

	Na                4.000e+00   4.000e+00
	S(6)              2.000e+00   2.000e+00

----------------------------Description of solution----------------------------

                                       pH  =   7.411      Charge balance
                                       pe  =   4.000    
       Specific Conductance (uS/cm, 25 oC) = 27307
                          Density (g/cm3)  =   1.20865
                        Activity of water  =   0.935
                           Ionic strength  =   6.000e+00
                       Mass of water (kg)  =   1.000e+00
                 Total alkalinity (eq/kg)  =  -2.563e-16
                    Total carbon (mol/kg)  =   0.000e+00
                       Total CO2 (mol/kg)  =   0.000e+00
                      Temperature (deg C)  =  25.00
                  Electrical balance (eq)  =  -1.242e-12
 Percent error, 100*(Cat-|An|)/(Cat+|An|)  =  -0.00
                               Iterations  =  13
                         Gamma iterations  =   5
                      Osmotic coefficient  =   0.62434
                         Density of water  =   0.99706
                                  Total H  = 1.110124e+02
                                  Total O  = 6.350622e+01

----------------------------Distribution of species----------------------------

                                                           MacInnes   MacInnes
	                               MacInnes    Log       Log         Log 
   Species          Molality    Activity  Molality  Activity     Gamma   cm3/mol

   OH-             4.360e-07   2.421e-07    -6.360    -6.616    -0.255     -2.20
   H+              7.528e-08   3.878e-08    -7.123    -7.411    -0.288      0.00
   H2              1.065e-26   1.065e-26   -25.973   -25.973     0.000     20.00
   H2O             5.551e+01   9.347e-01     1.744    -0.029     0.000     18.07
   O2              0.000e+00   0.000e+00   -40.493   -40.493     0.000     35.00
Na            4.000e+00
   Na+             4.000e+00   1.698e+00     0.602     0.230    -0.372      1.36
S(6)          2.000e+00
   SO4-2           2.000e+00   4.193e-02     0.301    -1.377    -1.679     26.97
   HSO4-           3.607e-07   1.549e-07    -6.443    -6.810    -0.367     (0)  

------------------------------Saturation indices-------------------------------

	Phase               SI   log IAP   log K(298 K,   1 atm)

	H2(g)           -22.87    -25.97   -3.10  H2
	H2O(g)           -1.53     -0.03    1.50  H2O
	Mirabilite        0.00     -1.21   -1.21  Na2SO4:10H2O
	O2(g)           -37.60    -40.49   -2.89  O2


-----------------------------------------
Beginning of batch-reaction calculations.
-----------------------------------------

Reaction step 1.

WARNING: Numerical method failed, switching to numerical derivatives.
Using solution 1.	
Using pure phase assemblage 1.	
Using gas phase 1.	
Using temperature 1.	

-----------------------------------Gas phase-----------------------------------

Total pressure: 65.13      atmospheres          (Peng-Robinson calculation)
    Gas volume:   1.00e+00 liters
  Molar volume:   1.06e-01 liters/mole
   P * Vm / RT:  0.28201  (Compressibility Factor Z) 

                                                        Moles in gas
                                            ----------------------------------
Component         log P           P    phi     Initial       Final       Delta

CO2(g)             1.81   6.502e+01  0.657   0.000e+00   9.424e+00   9.424e+00
H2O(g)            -0.97   1.059e-01  0.285   0.000e+00   1.536e-02   1.536e-02

-------------------------------Phase assemblage--------------------------------

                                                      Moles in assemblage
Phase               SI  log IAP  log K(T, P)   Initial       Final       Delta

CO2(g)            1.59     0.13     -1.45    1.000e+01           0  -1.000e+01

-----------------------------Solution composition------------------------------

	Elements           Molality       Moles

	C                 5.758e-01   5.756e-01
	Na                4.001e+00   4.000e+00
	S                 2.001e+00   2.000e+00

----------------------------Description of solution----------------------------

                                       pH  =   3.411      Charge balance
                                       pe  =   4.000      Adjusted to redox equilibrium
       Specific Conductance (uS/cm, 25 oC) = 31838
                          Density (g/cm3)  =   1.21793
                        Activity of water  =   0.918
                           Ionic strength  =   5.999e+00
                       Mass of water (kg)  =   9.996e-01
                 Total alkalinity (eq/kg)  =  -5.702e-12
                       Total CO2 (mol/kg)  =   5.758e-01
                      Temperature (deg C)  =  25.00
                           Pressure (atm)  = 65.13
                  Electrical balance (eq)  =   4.458e-12
 Percent error, 100*(Cat-|An|)/(Cat+|An|)  =   0.00
                               Iterations  = 140
                         Gamma iterations  =   6
                      Osmotic coefficient  =   0.71906
                         Density of water  =   0.99706
                                  Total H  = 1.109817e+02
                                  Total O  = 6.464212e+01

----------------------------Distribution of species----------------------------

                                                           MacInnes   MacInnes
	                               MacInnes    Log       Log         Log 
   Species          Molality    Activity  Molality  Activity     Gamma   cm3/mol

   H+              7.562e-04   3.883e-04    -3.121    -3.411    -0.289      0.00
   OH-             4.482e-11   2.504e-11   -10.348   -10.601    -0.253     -2.01
   H2              1.013e-18   1.013e-18   -17.994   -17.994     0.000     20.00
   H2O             5.551e+01   9.183e-01     1.744    -0.037     0.000     18.02
   O2              0.000e+00   0.000e+00   -56.510   -56.510     0.000     35.00
C(4)          5.758e-01
   CO2             5.712e-01   1.360e+00    -0.243     0.134     0.377     25.47
   HCO3-           4.632e-03   1.491e-03    -2.334    -2.827    -0.492     37.01
   CO3-2           6.185e-09   1.899e-10    -8.209    -9.721    -1.513      7.57
   CH4             1.827e-35   1.827e-35   -34.738   -34.738     0.000     33.00
Na            4.001e+00
   Na+             4.001e+00   1.810e+00     0.602     0.258    -0.344      1.40
S(6)          2.001e+00
   SO4-2           1.997e+00   4.511e-02     0.300    -1.346    -1.646     27.42
   HSO4-           3.876e-03   1.669e-03    -2.412    -2.778    -0.366     (0)  

------------------------------Saturation indices-------------------------------

	Phase               SI   log IAP   log K(298 K,  65 atm)

	Burkeite        -10.19    -10.87   -0.68  Na6CO3(SO4)2
	CH4(g)          -31.95    -34.74   -2.79  CH4
	CO2(g)            1.59      0.13   -1.46  CO2	 Pressure  65.0 atm, phi 0.657.
	H2(g)           -14.89    -17.99   -3.10  H2
	H2O(g)           -1.52     -0.04    1.48  H2O	 Pressure   0.1 atm, phi 0.285.
	Mirabilite        0.01     -1.20   -1.21  Na2SO4:10H2O
	Nahcolite        -2.12    -12.87  -10.75  NaHCO3
	Natron           -8.53     -9.58   -1.04  Na2CO3:10H2O
	O2(g)           -53.58    -56.51   -2.93  O2
	Trona           -10.83    -22.15  -11.33  Na3H(CO3)2:2H2O


Reaction step 2.

Using solution 1.	
Using pure phase assemblage 1.	
Using gas phase 1.	
Using temperature 1.	

-----------------------------------Gas phase-----------------------------------

Total pressure: 79.85      atmospheres          (Peng-Robinson calculation)
    Gas volume:   1.00e+00 liters
  Molar volume:   1.48e-01 liters/mole
   P * Vm / RT:  0.45892  (Compressibility Factor Z) 

                                                        Moles in gas
                                            ----------------------------------
Component         log P           P    phi     Initial       Final       Delta

CO2(g)             1.90   7.965e+01  0.649   0.000e+00   6.754e+00   6.754e+00
H2O(g)            -0.71   1.938e-01  0.364   0.000e+00   1.643e-02   1.643e-02

-------------------------------Phase assemblage--------------------------------

                                                      Moles in assemblage
Phase               SI  log IAP  log K(T, P)   Initial       Final       Delta

CO2(g)            1.67     0.06     -1.61    1.000e+01   2.763e+00  -7.237e+00

-----------------------------Solution composition------------------------------

	Elements           Molality       Moles

	C                 4.830e-01   4.828e-01
	Na                4.002e+00   4.000e+00
	S                 2.001e+00   2.000e+00

----------------------------Description of solution----------------------------

                                       pH  =   3.559      Charge balance
                                       pe  =   4.000      Adjusted to redox equilibrium
       Specific Conductance (uS/cm, 40 oC) = 45188
                          Density (g/cm3)  =   1.21070
                        Activity of water  =   0.918
                           Ionic strength  =   5.998e+00
                       Mass of water (kg)  =   9.996e-01
                 Total alkalinity (eq/kg)  =   1.479e-11
                       Total CO2 (mol/kg)  =   4.830e-01
                      Temperature (deg C)  =  40.00
                           Pressure (atm)  = 79.85
                  Electrical balance (eq)  =  -1.602e-11
 Percent error, 100*(Cat-|An|)/(Cat+|An|)  =  -0.00
                               Iterations  =  52
                         Gamma iterations  =   6
                      Osmotic coefficient  =   0.73111
                         Density of water  =   0.99221
                                  Total H  = 1.109796e+02
                                  Total O  = 6.445543e+01

----------------------------Distribution of species----------------------------

                                                           MacInnes   MacInnes
	                               MacInnes    Log       Log         Log 
   Species          Molality    Activity  Molality  Activity     Gamma   cm3/mol

   H+              5.974e-04   2.758e-04    -3.224    -3.559    -0.336      0.00
   OH-             1.832e-10   1.047e-10    -9.737    -9.980    -0.243     -2.28
   H2              4.394e-19   4.394e-19   -18.357   -18.357     0.000     20.00
   H2O             5.551e+01   9.181e-01     1.744    -0.037     0.000     18.09
   O2              0.000e+00   0.000e+00   -51.183   -51.183     0.000     35.00
C(4)          4.830e-01
   CO2             4.774e-01   1.137e+00    -0.321     0.056     0.377     24.62
   HCO3-           5.566e-03   2.007e-03    -2.254    -2.698    -0.443     34.13
   CO3-2           1.325e-08   4.666e-10    -7.878    -9.331    -1.453      4.71
   CH4             1.010e-38   1.010e-38   -37.996   -37.996     0.000     33.00
Na            4.002e+00
   Na+             4.002e+00   1.828e+00     0.602     0.262    -0.340      1.90
S(6)          2.001e+00
   SO4-2           1.996e+00   5.224e-02     0.300    -1.282    -1.582     27.29
   HSO4-           4.968e-03   2.104e-03    -2.304    -2.677    -0.373     (0)  

------------------------------Saturation indices-------------------------------

	Phase               SI   log IAP   log K(313 K,  80 atm)

	Burkeite         -9.66    -10.32   -0.66  Na6CO3(SO4)2
	CH4(g)          -35.12    -38.00   -2.87  CH4
	CO2(g)            1.66      0.06   -1.61  CO2	 Pressure  79.7 atm, phi 0.649.
	H2(g)           -15.23    -18.36   -3.13  H2
	H2O(g)           -1.15     -0.04    1.11  H2O	 Pressure   0.2 atm, phi 0.364.
	Mirabilite       -0.52     -1.13   -0.61  Na2SO4:10H2O
	Nahcolite        -1.88    -12.63  -10.75  NaHCO3
	Natron           -8.10     -9.18   -1.08  Na2CO3:10H2O
	O2(g)           -48.15    -51.18   -3.03  O2
	Trona           -10.20    -21.51  -11.31  Na3H(CO3)2:2H2O


Reaction step 3.

Using solution 1.	
Using pure phase assemblage 1.	
Using gas phase 1.	
Using temperature 1.	

-----------------------------------Gas phase-----------------------------------

Total pressure: 79.95      atmospheres          (Peng-Robinson calculation)
    Gas volume:   1.00e+00 liters
  Molar volume:   2.05e-01 liters/mole
   P * Vm / RT:  0.60851  (Compressibility Factor Z) 

                                                        Moles in gas
                                            ----------------------------------
Component         log P           P    phi     Initial       Final       Delta

CO2(g)             1.90   7.963e+01  0.702   0.000e+00   4.860e+00   4.860e+00
H2O(g)            -0.50   3.197e-01  0.469   0.000e+00   1.951e-02   1.951e-02

-------------------------------Phase assemblage--------------------------------

                                                      Moles in assemblage
Phase               SI  log IAP  log K(T, P)   Initial       Final       Delta

CO2(g)            1.70    -0.03     -1.73    1.000e+01   4.744e+00  -5.256e+00

-----------------------------Solution composition------------------------------

	Elements           Molality       Moles

	C                 3.967e-01   3.965e-01
	Na                4.002e+00   4.000e+00
	S                 2.001e+00   2.000e+00

----------------------------Description of solution----------------------------

                                       pH  =   3.749      Charge balance
                                       pe  =   4.000      Adjusted to redox equilibrium
       Specific Conductance (uS/cm, 55 oC) = 58322
                          Density (g/cm3)  =   1.20188
                        Activity of water  =   0.918
                           Ionic strength  =   5.997e+00
                       Mass of water (kg)  =   9.995e-01
                 Total alkalinity (eq/kg)  =  -3.184e-13
                       Total CO2 (mol/kg)  =   3.967e-01
                      Temperature (deg C)  =  55.00
                           Pressure (atm)  = 79.95
                  Electrical balance (eq)  =   1.723e-11
 Percent error, 100*(Cat-|An|)/(Cat+|An|)  =   0.00
                               Iterations  =  58
                         Gamma iterations  =   6
                      Osmotic coefficient  =   0.74216
                         Density of water  =   0.98569
                                  Total H  = 1.109734e+02
                                  Total O  = 6.427979e+01

----------------------------Distribution of species----------------------------

                                                           MacInnes   MacInnes
	                               MacInnes    Log       Log         Log 
   Species          Molality    Activity  Molality  Activity     Gamma   cm3/mol

   H+              4.395e-04   1.782e-04    -3.357    -3.749    -0.392      0.00
   OH-             7.294e-10   4.313e-10    -9.137    -9.365    -0.228     -2.68
   H2              1.616e-19   1.616e-19   -18.791   -18.791     0.000     20.00
   H2O             5.551e+01   9.180e-01     1.744    -0.037     0.000     18.21
   O2              0.000e+00   0.000e+00   -46.124   -46.124     0.000     35.00
C(4)          3.967e-01
   CO2             3.904e-01   9.296e-01    -0.409    -0.032     0.377     23.64
   HCO3-           6.356e-03   2.595e-03    -2.197    -2.586    -0.389     34.17
   CO3-2           2.651e-08   1.084e-09    -7.577    -8.965    -1.388      3.42
   CH4             0.000e+00   0.000e+00   -41.471   -41.471     0.000     33.00
Na            4.002e+00
   Na+             4.002e+00   1.804e+00     0.602     0.256    -0.346      1.80
S(6)          2.001e+00
   SO4-2           1.995e+00   6.127e-02     0.300    -1.213    -1.513     27.88
   HSO4-           5.916e-03   2.492e-03    -2.228    -2.603    -0.376     (0)  

------------------------------Saturation indices-------------------------------

	Phase               SI   log IAP   log K(328 K,  80 atm)

	Burkeite         -9.19     -9.85   -0.67  Na6CO3(SO4)2
	CH4(g)          -38.53    -41.47   -2.94  CH4
	CO2(g)            1.70     -0.03   -1.73  CO2	 Pressure  79.6 atm, phi 0.702.
	H2(g)           -15.65    -18.79   -3.14  H2
	H2O(g)           -0.82     -0.04    0.79  H2O	 Pressure   0.3 atm, phi 0.469.
	Mirabilite       -0.86     -1.07   -0.21  Na2SO4:10H2O
	Nahcolite        -1.71    -12.46  -10.75  NaHCO3
	Natron           -7.76     -8.82   -1.07  Na2CO3:10H2O
	O2(g)           -43.03    -46.12   -3.09  O2
	Trona            -9.67    -20.99  -11.31  Na3H(CO3)2:2H2O


Reaction step 4.

Using solution 1.	
Using pure phase assemblage 1.	
Using gas phase 1.	
Using temperature 1.	

-----------------------------------Gas phase-----------------------------------

Total pressure: 80.23      atmospheres          (Peng-Robinson calculation)
    Gas volume:   1.00e+00 liters
  Molar volume:   2.41e-01 liters/mole
   P * Vm / RT:  0.68616  (Compressibility Factor Z) 

                                                        Moles in gas
                                            ----------------------------------
Component         log P           P    phi     Initial       Final       Delta

CO2(g)             1.90   7.968e+01  0.742   0.000e+00   4.124e+00   4.124e+00
H2O(g)            -0.26   5.540e-01  0.533   0.000e+00   2.867e-02   2.867e-02

-------------------------------Phase assemblage--------------------------------

                                                      Moles in assemblage
Phase               SI  log IAP  log K(T, P)   Initial       Final       Delta

CO2(g)            1.73    -0.10     -1.83    1.000e+01   5.537e+00  -4.463e+00

-----------------------------Solution composition------------------------------

	Elements           Molality       Moles

	C                 3.393e-01   3.391e-01
	Na                4.003e+00   4.000e+00
	S                 2.001e+00   2.000e+00

----------------------------Description of solution----------------------------

                                       pH  =   3.958      Charge balance
                                       pe  =   4.000      Adjusted to redox equilibrium
       Specific Conductance (uS/cm, 70 oC) = 70971
                          Density (g/cm3)  =   1.19229
                        Activity of water  =   0.917
                           Ionic strength  =   5.997e+00
                       Mass of water (kg)  =   9.994e-01
                 Total alkalinity (eq/kg)  =  -3.474e-13
                       Total CO2 (mol/kg)  =   3.393e-01
                      Temperature (deg C)  =  70.00
                           Pressure (atm)  = 80.23
                  Electrical balance (eq)  =   1.443e-11
 Percent error, 100*(Cat-|An|)/(Cat+|An|)  =   0.00
                               Iterations  =  46
                         Gamma iterations  =   6
                      Osmotic coefficient  =   0.75611
                         Density of water  =   0.97778
                                  Total H  = 1.109551e+02
                                  Total O  = 6.415580e+01

----------------------------Distribution of species----------------------------

                                                           MacInnes   MacInnes
	                               MacInnes    Log       Log         Log 
   Species          Molality    Activity  Molality  Activity     Gamma   cm3/mol

   H+              3.147e-04   1.100e-04    -3.502    -3.958    -0.456      0.00
   OH-             2.766e-09   1.706e-09    -8.558    -8.768    -0.210     -3.15
   H2              5.490e-20   5.490e-20   -19.260   -19.260     0.000     20.00
   H2O             5.551e+01   9.172e-01     1.744    -0.038     0.000     18.36
   O2              0.000e+00   0.000e+00   -41.363   -41.363     0.000     35.00
C(4)          3.393e-01
   CO2             3.322e-01   7.909e-01    -0.479    -0.102     0.377     22.65
   HCO3-           7.194e-03   3.355e-03    -2.143    -2.474    -0.331     37.22
   CO3-2           5.080e-08   2.435e-09    -7.294    -8.613    -1.319      3.72
   CH4             0.000e+00   0.000e+00   -44.985   -44.985     0.000     33.00
Na            4.003e+00
   Na+             4.003e+00   1.755e+00     0.602     0.244    -0.358      1.12
S(6)          2.001e+00
   SO4-2           1.994e+00   7.284e-02     0.300    -1.138    -1.437     29.35
   HSO4-           6.879e-03   2.905e-03    -2.162    -2.537    -0.374     (0)  

------------------------------Saturation indices-------------------------------

	Phase               SI   log IAP   log K(343 K,  80 atm)

	Burkeite         -8.75     -9.42   -0.67  Na6CO3(SO4)2
	CH4(g)          -42.00    -44.98   -2.98  CH4
	CO2(g)            1.73     -0.10   -1.83  CO2	 Pressure  79.7 atm, phi 0.742.
	H2(g)           -16.12    -19.26   -3.14  H2
	H2O(g)           -0.53     -0.04    0.49  H2O	 Pressure   0.6 atm, phi 0.533.
	Mirabilite       -0.98     -1.02   -0.05  Na2SO4:10H2O
	Nahcolite        -1.58    -12.33  -10.75  NaHCO3
	Natron           -7.44     -8.50   -1.06  Na2CO3:10H2O
	O2(g)           -38.23    -41.36   -3.13  O2
	Trona            -9.22    -20.53  -11.31  Na3H(CO3)2:2H2O


Reaction step 5.

Using solution 1.	
Using pure phase assemblage 1.	
Using gas phase 1.	
Using temperature 1.	

-----------------------------------Gas phase-----------------------------------

Total pressure: 80.68      atmospheres          (Peng-Robinson calculation)
    Gas volume:   1.00e+00 liters
  Molar volume:   2.69e-01 liters/mole
   P * Vm / RT:  0.73923  (Compressibility Factor Z) 

                                                        Moles in gas
                                            ----------------------------------
Component         log P           P    phi     Initial       Final       Delta

CO2(g)             1.90   7.974e+01  0.776   0.000e+00   3.670e+00   3.670e+00
H2O(g)            -0.03   9.366e-01  0.582   0.000e+00   4.311e-02   4.311e-02

-------------------------------Phase assemblage--------------------------------

                                                      Moles in assemblage
Phase               SI  log IAP  log K(T, P)   Initial       Final       Delta

CO2(g)            1.75    -0.16     -1.90    1.000e+01   6.028e+00  -3.972e+00

-----------------------------Solution composition------------------------------

	Elements           Molality       Moles

	C                 3.015e-01   3.012e-01
	Na                4.004e+00   4.000e+00
	S                 2.002e+00   2.000e+00

----------------------------Description of solution----------------------------

                                       pH  =   4.181      Charge balance
                                       pe  =   4.000      Adjusted to redox equilibrium
       Specific Conductance (uS/cm, 85 oC) = 82919
                          Density (g/cm3)  =   1.18179
                        Activity of water  =   0.916
                           Ionic strength  =   5.998e+00
                       Mass of water (kg)  =   9.991e-01
                 Total alkalinity (eq/kg)  =  -3.272e-13
                       Total CO2 (mol/kg)  =   3.015e-01
                      Temperature (deg C)  =  85.00
                           Pressure (atm)  = 80.68
                  Electrical balance (eq)  =   1.160e-11
 Percent error, 100*(Cat-|An|)/(Cat+|An|)  =   0.00
                               Iterations  =  45
                         Gamma iterations  =   6
                      Osmotic coefficient  =   0.77139
                         Density of water  =   0.96864
                                  Total H  = 1.109262e+02
                                  Total O  = 6.406554e+01

----------------------------Distribution of species----------------------------

                                                           MacInnes   MacInnes
	                               MacInnes    Log       Log         Log 
   Species          Molality    Activity  Molality  Activity     Gamma   cm3/mol

   H+              2.218e-04   6.591e-05    -3.654    -4.181    -0.527      0.00
   OH-             9.980e-09   6.454e-09    -8.001    -8.190    -0.189     -3.67
   H2              1.772e-20   1.772e-20   -19.752   -19.752     0.000     20.00
   H2O             5.551e+01   9.161e-01     1.744    -0.038     0.000     18.53
   O2              1.324e-37   1.324e-37   -36.878   -36.878     0.000     35.00
C(4)          3.015e-01
   CO2             2.934e-01   6.987e-01    -0.533    -0.156     0.377     21.66
   HCO3-           8.098e-03   4.335e-03    -2.092    -2.363    -0.271     43.30
   CO3-2           9.369e-08   5.285e-09    -7.028    -8.277    -1.249      5.71
   CH4             0.000e+00   0.000e+00   -48.495   -48.495     0.000     33.00
Na            4.004e+00
   Na+             4.004e+00   1.685e+00     0.602     0.227    -0.376     -0.12
S(6)          2.002e+00
   SO4-2           1.994e+00   8.708e-02     0.300    -1.060    -1.360     31.81
   HSO4-           7.876e-03   3.351e-03    -2.104    -2.475    -0.371     (0)  

------------------------------Saturation indices-------------------------------

	Phase               SI   log IAP   log K(358 K,  81 atm)

	Burkeite         -8.36     -9.04   -0.67  Na6CO3(SO4)2
	CH4(g)          -45.49    -48.49   -3.01  CH4
	CO2(g)            1.75     -0.16   -1.91  CO2	 Pressure  79.7 atm, phi 0.776.
	H2(g)           -16.63    -19.75   -3.12  H2
	H2O(g)           -0.26     -0.04    0.23  H2O	 Pressure   0.9 atm, phi 0.582.
	Mirabilite       -0.84     -0.99   -0.15  Na2SO4:10H2O
	Nahcolite        -1.48    -12.23  -10.75  NaHCO3
	Natron           -7.15     -8.20   -1.05  Na2CO3:10H2O
	O2(g)           -33.72    -36.88   -3.15  O2
	Trona            -8.82    -20.13  -11.32  Na3H(CO3)2:2H2O


Reaction step 6.

Using solution 1.	
Using pure phase assemblage 1.	
Using gas phase 1.	
Using temperature 1.	

-----------------------------------Gas phase-----------------------------------

Total pressure: 81.36      atmospheres          (Peng-Robinson calculation)
    Gas volume:   1.00e+00 liters
  Molar volume:   2.93e-01 liters/mole
   P * Vm / RT:  0.77832  (Compressibility Factor Z) 

                                                        Moles in gas
                                            ----------------------------------
Component         log P           P    phi     Initial       Final       Delta

CO2(g)             1.90   7.983e+01  0.804   0.000e+00   3.350e+00   3.350e+00
H2O(g)             0.18   1.531e+00  0.620   0.000e+00   6.424e-02   6.424e-02

-------------------------------Phase assemblage--------------------------------

                                                      Moles in assemblage
Phase               SI  log IAP  log K(T, P)   Initial       Final       Delta

CO2(g)            1.77    -0.20     -1.96    1.000e+01   6.374e+00  -3.626e+00

-----------------------------Solution composition------------------------------

	Elements           Molality       Moles

[...]
   O2              2.260e-33   2.260e-33   -32.646   -32.646     0.000     35.00
C(4)          2.768e-01
   CO2             2.677e-01   6.377e-01    -0.572    -0.195     0.377     20.68
   HCO3-           9.071e-03   5.592e-03    -2.042    -2.252    -0.210     52.44
   CO3-2           1.668e-07   1.106e-08    -6.778    -7.956    -1.179      9.51
   CH4             0.000e+00   0.000e+00   -51.980   -51.980     0.000     33.00
Na            4.005e+00
   Na+             4.005e+00   1.601e+00     0.603     0.204    -0.398     -1.90
S(6)          2.003e+00
   SO4-2           1.994e+00   1.041e-01     0.300    -0.983    -1.282     35.35
   HSO4-           8.916e-03   3.833e-03    -2.050    -2.416    -0.367     (0)  

------------------------------Saturation indices-------------------------------

	Phase               SI   log IAP   log K(373 K,  81 atm)

	Burkeite         -8.02     -8.70   -0.68  Na6CO3(SO4)2
	CH4(g)          -48.97    -51.98   -3.01  CH4
	CO2(g)            1.77     -0.20   -1.97  CO2	 Pressure  79.8 atm, phi 0.804.
	H2(g)           -17.16    -20.26   -3.10  H2
	H2O(g)           -0.02     -0.04   -0.02  H2O	 Pressure   1.5 atm, phi 0.620.
	Mirabilite       -0.43     -0.96   -0.53  Na2SO4:10H2O
	Nahcolite        -1.41    -12.16  -10.75  NaHCO3
	Natron           -6.89     -7.93   -1.04  Na2CO3:10H2O
	O2(g)           -29.49    -32.65   -3.16  O2
	Trona            -8.47    -19.79  -11.32  Na3H(CO3)2:2H2O


Reaction step 7.

Using solution 1.	
Using pure phase assemblage 1.	
Using gas phase 1.	
Using temperature 1.	

-----------------------------------Gas phase-----------------------------------

Total pressure: 82.35      atmospheres          (Peng-Robinson calculation)
    Gas volume:   1.00e+00 liters
  Molar volume:   3.13e-01 liters/mole
   P * Vm / RT:  0.80798  (Compressibility Factor Z) 

                                                        Moles in gas
                                            ----------------------------------
Component         log P           P    phi     Initial       Final       Delta

CO2(g)             1.90   7.993e+01  0.827   0.000e+00   3.106e+00   3.106e+00
H2O(g)             0.38   2.419e+00  0.651   0.000e+00   9.401e-02   9.401e-02

-------------------------------Phase assemblage--------------------------------

                                                      Moles in assemblage
Phase               SI  log IAP  log K(T, P)   Initial       Final       Delta

CO2(g)            1.79    -0.22     -2.01    1.000e+01   6.633e+00  -3.367e+00

-----------------------------Solution composition------------------------------

	Elements           Molality       Moles

	C                 2.613e-01   2.608e-01
	Na                4.008e+00   4.000e+00
	S                 2.004e+00   2.000e+00

----------------------------Description of solution----------------------------

                                       pH  =   4.651      Charge balance
                                       pe  =   4.000      Adjusted to redox equilibrium
       Specific Conductance (uS/cm, 115 oC) = 106436
                          Density (g/cm3)  =   1.15317
                        Activity of water  =   0.913
                           Ionic strength  =   6.001e+00
                       Mass of water (kg)  =   9.981e-01
                 Total alkalinity (eq/kg)  =   3.350e-14
                       Total CO2 (mol/kg)  =   2.613e-01
                      Temperature (deg C)  = 115.00
                           Pressure (atm)  = 82.35
                  Electrical balance (eq)  =   1.431e-12
 Percent error, 100*(Cat-|An|)/(Cat+|An|)  =   0.00
                               Iterations  =  45
                         Gamma iterations  =   6
                      Osmotic coefficient  =   0.80185
                         Density of water  =   0.94713
                                  Total H  = 1.108244e+02
                                  Total O  = 6.393390e+01

----------------------------Distribution of species----------------------------

                                                           MacInnes   MacInnes
	                               MacInnes    Log       Log         Log 
   Species          Molality    Activity  Molality  Activity     Gamma   cm3/mol

   H+              1.081e-04   2.235e-05    -3.966    -4.651    -0.685      0.00
   OH-             1.130e-07   8.088e-08    -6.947    -7.092    -0.145     -4.80
   H2              1.689e-21   1.689e-21   -20.772   -20.772     0.000     20.00
   O2              2.269e-29   2.269e-29   -28.644   -28.644     0.000     35.00
   H2O             5.551e+01   9.134e-01     1.744    -0.039     0.000     19.02
C(4)          2.613e-01
   CO2             2.512e-01   5.985e-01    -0.600    -0.223     0.377     19.70
   HCO3-           1.011e-02   7.186e-03    -1.995    -2.144    -0.148     64.63
   CO3-2           2.880e-07   2.229e-08    -6.541    -7.652    -1.111     15.03
   CH4             0.000e+00   0.000e+00   -55.427   -55.427     0.000     33.00
Na            4.008e+00
   Na+             4.008e+00   1.505e+00     0.603     0.177    -0.425     -4.25
S(6)          2.004e+00
   SO4-2           1.994e+00   1.238e-01     0.300    -0.907    -1.207     39.91
   HSO4-           1.001e-02   4.350e-03    -2.000    -2.362    -0.362     (0)  

------------------------------Saturation indices-------------------------------

	Phase               SI   log IAP   log K(388 K,  82 atm)

	Burkeite         -7.72     -8.40   -0.68  Na6CO3(SO4)2
	CH4(g)          -52.42    -55.43   -3.00  CH4
	CO2(g)            1.79     -0.22   -2.02  CO2	 Pressure  79.9 atm, phi 0.827.
	H2(g)           -17.70    -20.77   -3.07  H2
	H2O(g)            0.20     -0.04   -0.24  H2O	 Pressure   2.4 atm, phi 0.651.
	Mirabilite        0.27     -0.95   -1.22  Na2SO4:10H2O
	Nahcolite        -1.37    -12.13  -10.75  NaHCO3
	Natron           -6.65     -7.69   -1.04  Na2CO3:10H2O
	O2(g)           -25.50    -28.64   -3.15  O2
	Trona            -8.17    -19.50  -11.33  Na3H(CO3)2:2H2O


Reaction step 8.

Using solution 1.	
Using pure phase assemblage 1.	
Using gas phase 1.	
Using temperature 1.	

-----------------------------------Gas phase-----------------------------------

Total pressure: 83.74      atmospheres          (Peng-Robinson calculation)
    Gas volume:   1.00e+00 liters
  Molar volume:   3.28e-01 liters/mole
   P * Vm / RT:  0.83059  (Compressibility Factor Z) 

                                                        Moles in gas
                                            ----------------------------------
Component         log P           P    phi     Initial       Final       Delta

CO2(g)             1.90   8.004e+01  0.848   0.000e+00   2.913e+00   2.913e+00
H2O(g)             0.57   3.701e+00  0.676   0.000e+00   1.347e-01   1.347e-01

-------------------------------Phase assemblage--------------------------------

                                                      Moles in assemblage
Phase               SI  log IAP  log K(T, P)   Initial       Final       Delta

CO2(g)            1.81    -0.24     -2.05    1.000e+01   6.835e+00  -3.165e+00

-----------------------------Solution composition------------------------------

	Elements           Molality       Moles

	C                 2.527e-01   2.520e-01
	Na                4.011e+00   4.000e+00
	S                 2.005e+00   2.000e+00

----------------------------Description of solution----------------------------

                                       pH  =   4.893      Charge balance
                                       pe  =   4.000      Adjusted to redox equilibrium
       Specific Conductance (uS/cm, 130 oC) = 119795
                          Density (g/cm3)  =   1.13810
                        Activity of water  =   0.912
                           Ionic strength  =   6.005e+00
                       Mass of water (kg)  =   9.974e-01
                 Total alkalinity (eq/kg)  =   6.587e-13
                       Total CO2 (mol/kg)  =   2.527e-01
                      Temperature (deg C)  = 130.00
                           Pressure (atm)  = 83.74
                  Electrical balance (eq)  =  -8.337e-12
 Percent error, 100*(Cat-|An|)/(Cat+|An|)  =  -0.00
                               Iterations  =  48
                         Gamma iterations  =   6
                      Osmotic coefficient  =   0.81571
                         Density of water  =   0.93488
                                  Total H  = 1.107431e+02
                                  Total O  = 6.387562e+01

----------------------------Distribution of species----------------------------

                                                           MacInnes   MacInnes
	                               MacInnes    Log       Log         Log 
   Species          Molality    Activity  Molality  Activity     Gamma   cm3/mol

   H+              7.543e-05   1.279e-05    -4.122    -4.893    -0.770      0.00
   OH-             3.571e-07   2.687e-07    -6.447    -6.571    -0.124     -5.28
   H2              5.088e-22   5.088e-22   -21.293   -21.293     0.000     20.00
   O2              1.405e-25   1.405e-25   -24.852   -24.852     0.000     35.00
   H2O             5.551e+01   9.120e-01     1.744    -0.040     0.000     19.27
C(4)          2.527e-01
   CO2             2.415e-01   5.756e-01    -0.617    -0.240     0.377     18.72
   HCO3-           1.121e-02   9.178e-03    -1.950    -2.037    -0.087     80.04
   CO3-2           4.833e-07   4.328e-08    -6.316    -7.364    -1.048     22.89
   CH4             0.000e+00   0.000e+00   -58.829   -58.829     0.000     33.00
Na            4.011e+00
   Na+             4.011e+00   1.401e+00     0.603     0.146    -0.457     -7.05
S(6)          2.005e+00
   SO4-2           1.994e+00   1.460e-01     0.300    -0.836    -1.135     46.07
   HSO4-           1.114e-02   4.892e-03    -1.953    -2.311    -0.357     (0)  

------------------------------Saturation indices-------------------------------

	Phase               SI   log IAP   log K(403 K,  84 atm)

	Burkeite         -7.47     -8.16   -0.69  Na6CO3(SO4)2
	CH4(g)          -55.84    -58.83   -2.98  CH4
	CO2(g)            1.82     -0.24   -2.05  CO2	 Pressure  80.0 atm, phi 0.848.
	H2(g)           -18.26    -21.29   -3.04  H2
	H2O(g)            0.40     -0.04   -0.44  H2O	 Pressure   3.7 atm, phi 0.676.
	Mirabilite        1.26     -0.94   -2.20  Na2SO4:10H2O
	Nahcolite        -1.35    -12.11  -10.76  NaHCO3
	Natron           -6.43     -7.47   -1.04  Na2CO3:10H2O
	O2(g)           -21.73    -24.85   -3.13  O2
	Trona            -7.92    -19.26  -11.34  Na3H(CO3)2:2H2O


Reaction step 9.

Using solution 1.	
Using pure phase assemblage 1.	
Using gas phase 1.	
Using temperature 1.	

-----------------------------------Gas phase-----------------------------------

Total pressure: 85.64      atmospheres          (Peng-Robinson calculation)
    Gas volume:   1.00e+00 liters
  Molar volume:   3.40e-01 liters/mole
   P * Vm / RT:  0.84758  (Compressibility Factor Z) 

                                                        Moles in gas
                                            ----------------------------------
Component         log P           P    phi     Initial       Final       Delta

CO2(g)             1.90   8.014e+01  0.865   0.000e+00   2.756e+00   2.756e+00
H2O(g)             0.74   5.496e+00  0.694   0.000e+00   1.890e-01   1.890e-01

-------------------------------Phase assemblage--------------------------------

                                                      Moles in assemblage
Phase               SI  log IAP  log K(T, P)   Initial       Final       Delta

CO2(g)            1.83    -0.25     -2.07    1.000e+01   6.996e+00  -3.004e+00

-----------------------------Solution composition------------------------------

	Elements           Molality       Moles

	C                 2.494e-01   2.485e-01
	Na                4.015e+00   4.000e+00
	S                 2.007e+00   2.000e+00

----------------------------Description of solution----------------------------

                                       pH  =   5.138      Charge balance
                                       pe  =   4.000      Adjusted to redox equilibrium
       Specific Conductance (uS/cm, 145 oC) = 135611
                          Density (g/cm3)  =   1.12062
                        Activity of water  =   0.911
                           Ionic strength  =   6.010e+00
                       Mass of water (kg)  =   9.964e-01
                 Total alkalinity (eq/kg)  =   1.779e-12
                       Total CO2 (mol/kg)  =   2.494e-01
                      Temperature (deg C)  = 145.00
                           Pressure (atm)  = 85.64
                  Electrical balance (eq)  =  -2.053e-11
 Percent error, 100*(Cat-|An|)/(Cat+|An|)  =  -0.00
                               Iterations  =  50
                         Gamma iterations  =   6
                      Osmotic coefficient  =   0.82803
                         Density of water  =   0.92167
                                  Total H  = 1.106345e+02
                                  Total O  = 6.381425e+01

----------------------------Distribution of species----------------------------

                                                           MacInnes   MacInnes
	                               MacInnes    Log       Log         Log 
   Species          Molality    Activity  Molality  Activity     Gamma   cm3/mol

   H+              5.280e-05   7.275e-06    -4.277    -5.138    -0.861      0.00
   OH-             1.087e-06   8.583e-07    -5.964    -6.066    -0.103     -5.64
   O2              5.609e-22   5.609e-22   -21.251   -21.251     0.000     35.00
   H2              1.522e-22   1.522e-22   -21.818   -21.818     0.000     20.00
   H2O             5.551e+01   9.107e-01     1.744    -0.041     0.000     19.55
C(4)          2.494e-01
   CO2             2.371e-01   5.653e-01    -0.625    -0.248     0.377     17.75
   HCO3-           1.236e-02   1.163e-02    -1.908    -1.935    -0.026     98.70
   CO3-2           7.908e-07   8.090e-08    -6.102    -7.092    -0.990     33.15
   CH4             0.000e+00   0.000e+00   -62.183   -62.183     0.000     33.00
Na            4.015e+00
   Na+             4.015e+00   1.292e+00     0.604     0.111    -0.492    -10.30
S(6)          2.007e+00
   SO4-2           1.995e+00   1.701e-01     0.300    -0.769    -1.069     53.91
   HSO4-           1.231e-02   5.447e-03    -1.910    -2.264    -0.354     (0)  

------------------------------Saturation indices-------------------------------

	Phase               SI   log IAP   log K(418 K,  86 atm)

	Burkeite         -7.27     -7.96   -0.69  Na6CO3(SO4)2
	CH4(g)          -59.23    -62.18   -2.96  CH4
	CO2(g)            1.84     -0.25   -2.08  CO2	 Pressure  80.1 atm, phi 0.865.
	H2(g)           -18.82    -21.82   -2.99  H2
	H2O(g)            0.58     -0.04   -0.62  H2O	 Pressure   5.5 atm, phi 0.694.
	Mirabilite        2.54     -0.95   -3.49  Na2SO4:10H2O
	Nahcolite        -1.35    -12.12  -10.77  NaHCO3
	Natron           -6.23     -7.28   -1.05  Na2CO3:10H2O
	O2(g)           -18.16    -21.25   -3.09  O2
	Trona            -7.72    -19.07  -11.35  Na3H(CO3)2:2H2O


Reaction step 10.

Using solution 1.	
Using pure phase assemblage 1.	
Using gas phase 1.	
Using temperature 1.	

-----------------------------------Gas phase-----------------------------------

Total pressure: 88.17      atmospheres          (Peng-Robinson calculation)
    Gas volume:   1.00e+00 liters
  Molar volume:   3.47e-01 liters/mole
   P * Vm / RT:  0.85981  (Compressibility Factor Z) 

                                                        Moles in gas
                                            ----------------------------------
Component         log P           P    phi     Initial       Final       Delta

CO2(g)             1.90   8.023e+01  0.880   0.000e+00   2.625e+00   2.625e+00
H2O(g)             0.90   7.945e+00  0.706   0.000e+00   2.600e-01   2.600e-01

-------------------------------Phase assemblage--------------------------------

                                                      Moles in assemblage
Phase               SI  log IAP  log K(T, P)   Initial       Final       Delta

CO2(g)            1.85    -0.25     -2.09    1.000e+01   7.126e+00  -2.874e+00

-----------------------------Solution composition------------------------------

	Elements           Molality       Moles

	C                 2.505e-01   2.493e-01
	Na                4.020e+00   4.000e+00
	S                 2.010e+00   2.000e+00

----------------------------Description of solution----------------------------

                                       pH  =   5.385      Charge balance
                                       pe  =   4.000      Adjusted to redox equilibrium
       Specific Conductance (uS/cm, 160 oC) = 154060
                          Density (g/cm3)  =   1.10011
                        Activity of water  =   0.910
                           Ionic strength  =   6.016e+00
                       Mass of water (kg)  =   9.951e-01
                 Total alkalinity (eq/kg)  =   3.768e-12
                       Total CO2 (mol/kg)  =   2.505e-01
                      Temperature (deg C)  = 160.00
                           Pressure (atm)  = 88.17
                  Electrical balance (eq)  =  -3.961e-11
 Percent error, 100*(Cat-|An|)/(Cat+|An|)  =  -0.00
                               Iterations  =  56
                         Gamma iterations  =   6
                      Osmotic coefficient  =   0.83840
                         Density of water  =   0.90750
                                  Total H  = 1.104925e+02
                                  Total O  = 6.374482e+01

----------------------------Distribution of species----------------------------

                                                           MacInnes   MacInnes
	                               MacInnes    Log       Log         Log 
   Species          Molality    Activity  Molality  Activity     Gamma   cm3/mol

   H+              3.717e-05   4.119e-06    -4.430    -5.385    -0.955      0.00
   OH-             3.201e-06   2.643e-06    -5.495    -5.578    -0.083     -5.80
   O2              1.501e-18   1.501e-18   -17.824   -17.824     0.000     35.00
   H2              4.533e-23   4.533e-23   -22.344   -22.344     0.000     20.00
   H2O             5.551e+01   9.095e-01     1.744    -0.041     0.000     19.85
C(4)          2.505e-01
   CO2             2.370e-01   5.657e-01    -0.625    -0.247     0.378     16.79
   HCO3-           1.351e-02   1.458e-02    -1.869    -1.836     0.033    120.71
   CO3-2           1.265e-06   1.456e-07    -5.898    -6.837    -0.939     46.14
   CH4             0.000e+00   0.000e+00   -65.489   -65.489     0.000     33.00
Na            4.020e+00
   Na+             4.020e+00   1.181e+00     0.604     0.072    -0.532    -13.95
S(6)          2.010e+00
   SO4-2           1.996e+00   1.952e-01     0.300    -0.710    -1.010     63.73
   HSO4-           1.348e-02   5.993e-03    -1.870    -2.222    -0.352     (0)  

------------------------------Saturation indices-------------------------------

	Phase               SI   log IAP   log K(433 K,  88 atm)

	Burkeite         -7.12     -7.82   -0.71  Na6CO3(SO4)2
	CH4(g)          -62.57    -65.49   -2.92  CH4
	CO2(g)            1.86     -0.25   -2.11  CO2	 Pressure  80.2 atm, phi 0.880.
	H2(g)           -19.40    -22.34   -2.95  H2
	H2O(g)            0.75     -0.04   -0.79  H2O	 Pressure   7.9 atm, phi 0.706.
	Mirabilite        4.11     -0.98   -5.08  Na2SO4:10H2O
	Nahcolite        -1.37    -12.15  -10.78  NaHCO3
	Natron           -6.05     -7.10   -1.06  Na2CO3:10H2O
	O2(g)           -14.77    -17.82   -3.05  O2
	Trona            -7.56    -18.93  -11.37  Na3H(CO3)2:2H2O


------------------
End of simulation.
------------------

------------------------------------
Reading input data for simulation 3.
------------------------------------

-----------
End of run.
-----------

