   Input file: co2_t30
  Output file: co2_t30.out
Database file: ../database/phreeqc.dat

------------------
Reading data base.
------------------

	SOLUTION_MASTER_SPECIES
	SOLUTION_SPECIES
	PHASES
	EXCHANGE_MASTER_SPECIES
	EXCHANGE_SPECIES
	SURFACE_MASTER_SPECIES
	SURFACE_SPECIES
	RATES
	END
------------------------------------
Reading input data for simulation 1.
------------------------------------

	DATABASE ../database/phreeqc.dat
	SOLUTION 1
	 pH 7 charge
	 temp 30
	GAS_PHASE 1
	     fixed_volume
	     CO2(g) 0
		 H2O(g) 0
	REACTION
	 CO2 1
	 5*0.1 4*0.2 15*1
	INCREMENTAL_REACTIONS true
	USER_GRAPH
	 -plot_csv_file CO2_t30.dat
	 -axis_titles "CO2 pressure / bar" "CO2 solubility at 30 oC / (mol/kgw)"
	 -connect_simulations false
	 10 graph_x pr_p("CO2(g)") * 1.013
	 20 graph_y tot("C")
	END
-------------------------------------------
Beginning of initial solution calculations.
-------------------------------------------

Initial solution 1.	

-----------------------------Solution composition------------------------------

	Elements           Molality       Moles

	Pure water     

----------------------------Description of solution----------------------------

                                       pH  =   6.918      Charge balance
                                       pe  =   4.000    
       Specific Conductance (uS/cm, 30 oC) = 0
                          Density (g/cm3)  =   0.99564
                        Activity of water  =   1.000
                           Ionic strength  =   1.208e-07
                       Mass of water (kg)  =   1.000e+00
                 Total alkalinity (eq/kg)  =  -2.622e-19
                    Total carbon (mol/kg)  =   0.000e+00
                       Total CO2 (mol/kg)  =   0.000e+00
                      Temperature (deg C)  =  30.00
                  Electrical balance (eq)  =   2.622e-19
 Percent error, 100*(Cat-|An|)/(Cat+|An|)  =   0.00
                               Iterations  =   3
                                  Total H  = 1.110124e+02
                                  Total O  = 5.550622e+01

----------------------------Distribution of species----------------------------

                                               Log       Log       Log    mole V
   Species          Molality    Activity  Molality  Activity     Gamma   cm3/mol

   H+              1.208e-07   1.208e-07    -6.918    -6.918    -0.000      0.00
   OH-             1.208e-07   1.208e-07    -6.918    -6.918    -0.000     -3.91
   H2O             5.551e+01   1.000e+00     1.744    -0.000     0.000     18.09
H(0)          1.967e-25
   H2              9.835e-26   9.835e-26   -25.007   -25.007     0.000     28.60
O(0)          0.000e+00
   O2              0.000e+00   0.000e+00   -40.779   -40.779     0.000     30.77

------------------------------Saturation indices-------------------------------

	Phase               SI   log IAP   log K(303 K,   1 atm)

	H2(g)           -21.90    -25.01   -3.11  H2
	H2O(g)           -1.38     -0.00    1.38  H2O
	O2(g)           -37.85    -40.78   -2.93  O2


-----------------------------------------
Beginning of batch-reaction calculations.
-----------------------------------------

Reaction step 1.

Using solution 1.	
Using gas phase 1.	
Using reaction 1.	

Reaction 1.	

	  1.000e-01 moles of the following reaction have been added:

	                 Relative
	Reactant            moles

	CO2                  1.00000

	                 Relative
	Element             moles
	C                    1.00000
	O                    2.00000

-----------------------------------Gas phase-----------------------------------

Total pressure:  1.45      atmospheres          (Peng-Robinson calculation)
    Gas volume:   1.00e+00 liters
  Molar volume:   1.70e+01 liters/mole
   P * Vm / RT:  0.99215  (Compressibility Factor Z) 

                                                        Moles in gas
                                            ----------------------------------
Component         log P           P    phi     Initial       Final       Delta

CO2(g)             0.15   1.410e+00  0.992   0.000e+00   5.711e-02   5.711e-02
H2O(g)            -1.37   4.256e-02  0.986   0.000e+00   1.724e-03   1.724e-03

-----------------------------Solution composition------------------------------

	Elements           Molality       Moles

	C                 4.289e-02   4.289e-02

----------------------------Description of solution----------------------------

                                       pH  =   3.849      Charge balance
                                       pe  =  13.553      Adjusted to redox equilibrium
       Specific Conductance (uS/cm, 30 oC) = 62
                          Density (g/cm3)  =   0.99631
                        Activity of water  =   0.999
                           Ionic strength  =   1.436e-04
                       Mass of water (kg)  =   1.000e+00
                 Total alkalinity (eq/kg)  =  -6.127e-13
                       Total CO2 (mol/kg)  =   4.289e-02
                      Temperature (deg C)  =  30.00
                           Pressure (atm)  =  1.45
                  Electrical balance (eq)  =   6.126e-13
 Percent error, 100*(Cat-|An|)/(Cat+|An|)  =   0.00
                               Iterations  =  29
                                  Total H  = 1.110090e+02
                                  Total O  = 5.559026e+01

----------------------------Distribution of species----------------------------

                                               Log       Log       Log    mole V
   Species          Molality    Activity  Molality  Activity     Gamma   cm3/mol

   H+              1.436e-04   1.417e-04    -3.843    -3.849    -0.006      0.00
   OH-             1.044e-10   1.029e-10    -9.981    -9.987    -0.006     -3.90
   H2O             5.551e+01   9.993e-01     1.744    -0.000     0.000     18.09
C(-4)         0.000e+00
   CH4             0.000e+00   0.000e+00  -116.865  -116.865     0.000     32.22
C(4)          4.289e-02
   CO2             4.274e-02   4.274e-02    -1.369    -1.369     0.000     29.02
   HCO3-           1.436e-04   1.417e-04    -3.843    -3.849    -0.006     24.82
   CO3-2           5.450e-11   5.155e-11   -10.264   -10.288    -0.024     -3.63
H(0)          2.119e-38
   H2              1.060e-38   1.060e-38   -37.975   -37.975     0.000     28.60
O(0)          2.862e-15
   O2              1.431e-15   1.431e-15   -14.844   -14.844     0.000     30.77

------------------------------Saturation indices-------------------------------

	Phase               SI   log IAP   log K(303 K,   1 atm)

	CH4(g)         -113.99   -116.87   -2.88  CH4
	CO2(g)            0.15     -1.37   -1.51  CO2	 Pressure   1.4 atm, phi 0.992.
	H2(g)           -34.86    -37.97   -3.11  H2
	H2O(g)           -1.38     -0.00    1.38  H2O	 Pressure   0.0 atm, phi 0.986.
	O2(g)           -11.92    -14.84   -2.93  O2


Reaction step 2.

Using solution 1.	
Using gas phase 1.	
Using reaction 1.	

Reaction 1.	

	  1.000e-01 moles of the following reaction have been added:

	                 Relative
	Reactant            moles

	CO2                  1.00000

	                 Relative
	Element             moles
	C                    1.00000
	O                    2.00000

-----------------------------------Gas phase-----------------------------------

Total pressure:  2.86      atmospheres          (Peng-Robinson calculation)
    Gas volume:   1.00e+00 liters
  Molar volume:   8.56e+00 liters/mole
   P * Vm / RT:  0.98464  (Compressibility Factor Z) 

                                                        Moles in gas
                                            ----------------------------------
Component         log P           P    phi     Initial       Final       Delta

CO2(g)             0.45   2.819e+00  0.985   5.711e-02   1.151e-01   5.798e-02
H2O(g)            -1.37   4.312e-02  0.974   1.724e-03   1.760e-03   3.619e-05

-----------------------------Solution composition------------------------------

	Elements           Molality       Moles

	C                 8.491e-02   8.491e-02

----------------------------Description of solution----------------------------

                                       pH  =   3.700      Charge balance
                                       pe  =  13.645      Adjusted to redox equilibrium
       Specific Conductance (uS/cm, 30 oC) = 88
                          Density (g/cm3)  =   0.99701
                        Activity of water  =   0.999
                           Ionic strength  =   2.028e-04
                       Mass of water (kg)  =   1.000e+00
                 Total alkalinity (eq/kg)  =   4.311e-13
                       Total CO2 (mol/kg)  =   8.491e-02
                      Temperature (deg C)  =  30.00
                           Pressure (atm)  =  2.86
                  Electrical balance (eq)  =  -4.311e-13
 Percent error, 100*(Cat-|An|)/(Cat+|An|)  =  -0.00
                               Iterations  =  19
                                  Total H  = 1.110089e+02
                                  Total O  = 5.567427e+01

----------------------------Distribution of species----------------------------

                                               Log       Log       Log    mole V
   Species          Molality    Activity  Molality  Activity     Gamma   cm3/mol

   H+              2.028e-04   1.995e-04    -3.693    -3.700    -0.007      0.00
   OH-             7.436e-11   7.314e-11   -10.129   -10.136    -0.007     -3.89
   H2O             5.551e+01   9.986e-01     1.744    -0.001     0.000     18.09
C(-4)         0.000e+00
   CH4             0.000e+00   0.000e+00  -116.113  -116.113     0.000     32.22
C(4)          8.491e-02
   CO2             8.471e-02   8.471e-02    -1.072    -1.072     0.000     29.03
   HCO3-           2.028e-04   1.995e-04    -3.693    -3.700    -0.007     24.83
   CO3-2           5.515e-11   5.163e-11   -10.258   -10.287    -0.029     -3.62
H(0)          2.749e-38
   H2              1.375e-38   1.375e-38   -37.862   -37.862     0.000     28.60
O(0)          1.693e-15
   O2              8.464e-16   8.465e-16   -15.072   -15.072     0.000     30.77

------------------------------Saturation indices-------------------------------

	Phase               SI   log IAP   log K(303 K,   3 atm)

	CH4(g)         -113.24   -116.11   -2.88  CH4
	CO2(g)            0.44     -1.07   -1.51  CO2	 Pressure   2.8 atm, phi 0.985.
	H2(g)           -34.75    -37.86   -3.11  H2
	H2O(g)           -1.38     -0.00    1.38  H2O	 Pressure   0.0 atm, phi 0.974.
	O2(g)           -12.14    -15.07   -2.93  O2


Reaction step 3.

Using solution 1.	
Using gas phase 1.	
Using reaction 1.	

Reaction 1.	

	  1.000e-01 moles of the following reaction have been added:

	                 Relative
	Reactant            moles

	CO2                  1.00000

	                 Relative
	Element             moles
	C                    1.00000
	O                    2.00000

-----------------------------------Gas phase-----------------------------------

Total pressure:  4.27      atmospheres          (Peng-Robinson calculation)
    Gas volume:   1.00e+00 liters
  Molar volume:   5.69e+00 liters/mole
   P * Vm / RT:  0.97709  (Compressibility Factor Z) 

                                                        Moles in gas
                                            ----------------------------------
Component         log P           P    phi     Initial       Final       Delta

CO2(g)             0.63   4.227e+00  0.978   1.151e-01   1.739e-01   5.881e-02
H2O(g)            -1.36   4.370e-02  0.961   1.760e-03   1.798e-03   3.732e-05

-----------------------------Solution composition------------------------------

	Elements           Molality       Moles

	C                 1.261e-01   1.261e-01

----------------------------Description of solution----------------------------

                                       pH  =   3.614      Charge balance
                                       pe  =  13.729      Adjusted to redox equilibrium
       Specific Conductance (uS/cm, 30 oC) = 107
                          Density (g/cm3)  =   0.99768
                        Activity of water  =   0.998
                           Ionic strength  =   2.477e-04
                       Mass of water (kg)  =   1.000e+00
                 Total alkalinity (eq/kg)  =  -5.221e-13
                       Total CO2 (mol/kg)  =   1.261e-01
                      Temperature (deg C)  =  30.00
                           Pressure (atm)  =  4.27
                  Electrical balance (eq)  =   5.221e-13
 Percent error, 100*(Cat-|An|)/(Cat+|An|)  =   0.00
                               Iterations  =  20
                                  Total H  = 1.110088e+02
                                  Total O  = 5.575661e+01

----------------------------Distribution of species----------------------------

                                               Log       Log       Log    mole V
   Species          Molality    Activity  Molality  Activity     Gamma   cm3/mol

   H+              2.477e-04   2.433e-04    -3.606    -3.614    -0.008      0.00
   OH-             6.112e-11   6.001e-11   -10.214   -10.222    -0.008     -3.89
   H2O             5.551e+01   9.979e-01     1.744    -0.001     0.000     18.09
C(-4)         0.000e+00
   CH4             0.000e+00   0.000e+00  -115.928  -115.928     0.000     32.22
C(4)          1.261e-01
   CO2             1.259e-01   1.259e-01    -0.900    -0.900     0.000     29.03
   HCO3-           2.477e-04   2.432e-04    -3.606    -3.614    -0.008     24.84
   CO3-2           5.560e-11   5.171e-11   -10.255   -10.286    -0.032     -3.60
H(0)          2.767e-38
   H2              1.384e-38   1.384e-38   -37.859   -37.859     0.000     28.60
O(0)          1.664e-15
   O2              8.318e-16   8.318e-16   -15.080   -15.080     0.000     30.76

------------------------------Saturation indices-------------------------------

	Phase               SI   log IAP   log K(303 K,   4 atm)

	CH4(g)         -113.05   -115.93   -2.88  CH4
	CO2(g)            0.61     -0.90   -1.51  CO2	 Pressure   4.2 atm, phi 0.978.
	H2(g)           -34.75    -37.86   -3.11  H2
	H2O(g)           -1.38     -0.00    1.38  H2O	 Pressure   0.0 atm, phi 0.961.
	O2(g)           -12.15    -15.08   -2.93  O2


Reaction step 4.

Using solution 1.	
Using gas phase 1.	
Using reaction 1.	

Reaction 1.	

	  1.000e-01 moles of the following reaction have been added:

	                 Relative
	Reactant            moles

	CO2                  1.00000

	                 Relative
	Element             moles
	C                    1.00000
	O                    2.00000

-----------------------------------Gas phase-----------------------------------

Total pressure:  5.68      atmospheres          (Peng-Robinson calculation)
    Gas volume:   1.00e+00 liters
  Molar volume:   4.25e+00 liters/mole
   P * Vm / RT:  0.96948  (Compressibility Factor Z) 

                                                        Moles in gas
                                            ----------------------------------
Component         log P           P    phi     Initial       Final       Delta

CO2(g)             0.75   5.633e+00  0.970   1.739e-01   2.336e-01   5.964e-02
H2O(g)            -1.35   4.428e-02  0.949   1.798e-03   1.836e-03   3.849e-05

-----------------------------Solution composition------------------------------

	Elements           Molality       Moles

	C                 1.665e-01   1.664e-01

----------------------------Description of solution----------------------------

                                       pH  =   3.553      Charge balance
                                       pe  =   1.921      Adjusted to redox equilibrium
       Specific Conductance (uS/cm, 30 oC) = 123
                          Density (g/cm3)  =   0.99835
                        Activity of water  =   0.997
                           Ionic strength  =   2.850e-04
                       Mass of water (kg)  =   1.000e+00
                 Total alkalinity (eq/kg)  =   2.639e-13
                       Total CO2 (mol/kg)  =   1.665e-01
                      Temperature (deg C)  =  30.00
                           Pressure (atm)  =  5.68
                  Electrical balance (eq)  =  -2.639e-13
 Percent error, 100*(Cat-|An|)/(Cat+|An|)  =  -0.00
                               Iterations  =  35
                                  Total H  = 1.110088e+02
                                  Total O  = 5.583728e+01

----------------------------Distribution of species----------------------------

                                               Log       Log       Log    mole V
   Species          Molality    Activity  Molality  Activity     Gamma   cm3/mol

   H+              2.850e-04   2.796e-04    -3.545    -3.553    -0.008      0.00
   OH-             5.328e-11   5.224e-11   -10.273   -10.282    -0.009     -3.88
   H2O             5.551e+01   9.972e-01     1.744    -0.001     0.000     18.09
C(-4)         1.379e-21
   CH4             1.379e-21   1.379e-21   -20.860   -20.860     0.000     32.22
C(4)          1.665e-01
   CO2             1.662e-01   1.662e-01    -0.779    -0.779     0.000     29.04
   HCO3-           2.850e-04   2.795e-04    -3.545    -3.554    -0.008     24.84
   CO3-2           5.598e-11   5.179e-11   -10.252   -10.286    -0.034     -3.58
H(0)          1.507e-14
   H2              7.534e-15   7.535e-15   -14.123   -14.123     0.000     28.60
O(0)          0.000e+00
   O2              0.000e+00   0.000e+00   -62.554   -62.554     0.000     30.76

------------------------------Saturation indices-------------------------------

	Phase               SI   log IAP   log K(303 K,   6 atm)

	CH4(g)          -17.99    -20.86   -2.87  CH4
	CO2(g)            0.73     -0.78   -1.51  CO2	 Pressure   5.6 atm, phi 0.970.
	H2(g)           -11.01    -14.12   -3.11  H2
	H2O(g)           -1.38     -0.00    1.38  H2O	 Pressure   0.0 atm, phi 0.949.
	O2(g)           -59.62    -62.55   -2.93  O2


Reaction step 5.

Using solution 1.	
Using gas phase 1.	
Using reaction 1.	

Reaction 1.	

	  1.000e-01 moles of the following reaction have been added:

	                 Relative
	Reactant            moles

	CO2                  1.00000

	                 Relative
	Element             moles
	C                    1.00000
	O                    2.00000

-----------------------------------Gas phase-----------------------------------

Total pressure:  7.08      atmospheres          (Peng-Robinson calculation)
    Gas volume:   1.00e+00 liters
  Molar volume:   3.38e+00 liters/mole
   P * Vm / RT:  0.96184  (Compressibility Factor Z) 

                                                        Moles in gas
                                            ----------------------------------
Component         log P           P    phi     Initial       Final       Delta

CO2(g)             0.85   7.035e+00  0.963   2.336e-01   2.940e-01   6.048e-02
H2O(g)            -1.35   4.488e-02  0.937   1.836e-03   1.876e-03   3.969e-05

-----------------------------Solution composition------------------------------

	Elements           Molality       Moles

	C                 2.060e-01   2.060e-01

----------------------------Description of solution----------------------------

                                       pH  =   3.507      Charge balance
                                       pe  =   2.155      Adjusted to redox equilibrium
       Specific Conductance (uS/cm, 30 oC) = 137
                          Density (g/cm3)  =   0.99900
                        Activity of water  =   0.996
                           Ionic strength  =   3.175e-04
                       Mass of water (kg)  =   1.000e+00
                 Total alkalinity (eq/kg)  =   8.671e-13
                       Total CO2 (mol/kg)  =   2.060e-01
                      Temperature (deg C)  =  30.00
                           Pressure (atm)  =  7.08
                  Electrical balance (eq)  =  -8.670e-13
 Percent error, 100*(Cat-|An|)/(Cat+|An|)  =  -0.00
                               Iterations  =  20
                                  Total H  = 1.110087e+02
                                  Total O  = 5.591628e+01

----------------------------Distribution of species----------------------------

                                               Log       Log       Log    mole V
   Species          Molality    Activity  Molality  Activity     Gamma   cm3/mol

   H+              3.175e-04   3.112e-04    -3.498    -3.507    -0.009      0.00
   OH-             4.795e-11   4.697e-11   -10.319   -10.328    -0.009     -3.87
   H2O             5.551e+01   9.965e-01     1.744    -0.002     0.000     18.09
C(-4)         5.382e-23
   CH4             5.382e-23   5.382e-23   -22.269   -22.269     0.000     32.22
C(4)          2.060e-01
   CO2             2.057e-01   2.057e-01    -0.687    -0.687     0.000     29.05
   HCO3-           3.175e-04   3.111e-04    -3.498    -3.507    -0.009     24.85
   CO3-2           5.630e-11   5.187e-11   -10.250   -10.285    -0.036     -3.57
H(0)          6.341e-15
   H2              3.171e-15   3.171e-15   -14.499   -14.499     0.000     28.60
O(0)          0.000e+00
   O2              0.000e+00   0.000e+00   -61.804   -61.804     0.000     30.76

------------------------------Saturation indices-------------------------------

	Phase               SI   log IAP   log K(303 K,   7 atm)

	CH4(g)          -19.40    -22.27   -2.87  CH4
	CO2(g)            0.83     -0.69   -1.51  CO2	 Pressure   7.0 atm, phi 0.963.
	H2(g)           -11.39    -14.50   -3.11  H2
	H2O(g)           -1.38     -0.00    1.37  H2O	 Pressure   0.0 atm, phi 0.937.
	O2(g)           -58.87    -61.80   -2.93  O2


Reaction step 6.

Using solution 1.	
Using gas phase 1.	
Using reaction 1.	

Reaction 1.	

	  2.000e-01 moles of the following reaction have been added:

	                 Relative
	Reactant            moles

	CO2                  1.00000

	                 Relative
	Element             moles
	C                    1.00000
	O                    2.00000

-----------------------------------Gas phase-----------------------------------

Total pressure:  9.88      atmospheres          (Peng-Robinson calculation)
    Gas volume:   1.00e+00 liters
  Molar volume:   2.38e+00 liters/mole
   P * Vm / RT:  0.94642  (Compressibility Factor Z) 

                                                        Moles in gas
                                            ----------------------------------
Component         log P           P    phi     Initial       Final       Delta

CO2(g)             0.99   9.830e+00  0.949   2.940e-01   4.175e-01   1.235e-01
H2O(g)            -1.34   4.612e-02  0.912   1.876e-03   1.959e-03   8.314e-05

-----------------------------Solution composition------------------------------

	Elements           Molality       Moles

	C                 2.825e-01   2.825e-01

----------------------------Description of solution----------------------------

                                       pH  =   3.438      Charge balance
                                       pe  =   2.025      Adjusted to redox equilibrium
       Specific Conductance (uS/cm, 30 oC) = 161
                          Density (g/cm3)  =   1.00025
                        Activity of water  =   0.995
                           Ionic strength  =   3.727e-04
                       Mass of water (kg)  =   1.000e+00
                 Total alkalinity (eq/kg)  =   2.801e-13
                       Total CO2 (mol/kg)  =   2.825e-01
                      Temperature (deg C)  =  30.00
                           Pressure (atm)  =  9.88
                  Electrical balance (eq)  =  -2.801e-13
 Percent error, 100*(Cat-|An|)/(Cat+|An|)  =  -0.00
                               Iterations  =  22
                                  Total H  = 1.110085e+02
                                  Total O  = 5.606923e+01

----------------------------Distribution of species----------------------------

                                               Log       Log       Log    mole V
   Species          Molality    Activity  Molality  Activity     Gamma   cm3/mol

   H+              3.727e-04   3.647e-04    -3.429    -3.438    -0.009      0.00
   OH-             4.103e-11   4.012e-11   -10.387   -10.397    -0.010     -3.86
   H2O             5.551e+01   9.952e-01     1.744    -0.002     0.000     18.09
C(-4)         2.913e-21
   CH4             2.913e-21   2.913e-21   -20.536   -20.536     0.000     32.22
C(4)          2.825e-01
   CO2             2.821e-01   2.821e-01    -0.550    -0.550     0.000     29.06
   HCO3-           3.727e-04   3.645e-04    -3.429    -3.438    -0.010     24.86
   CO3-2           5.685e-11   5.204e-11   -10.245   -10.284    -0.038     -3.54
H(0)          1.585e-14
   H2              7.924e-15   7.925e-15   -14.101   -14.101     0.000     28.60
O(0)          0.000e+00
   O2              0.000e+00   0.000e+00   -62.603   -62.603     0.000     30.76

------------------------------Saturation indices-------------------------------

	Phase               SI   log IAP   log K(303 K,  10 atm)

	CH4(g)          -17.67    -20.54   -2.87  CH4
	CO2(g)            0.96     -0.55   -1.51  CO2	 Pressure   9.8 atm, phi 0.949.
	H2(g)           -10.99    -14.10   -3.11  H2
	H2O(g)           -1.38     -0.00    1.37  H2O	 Pressure   0.0 atm, phi 0.912.
	O2(g)           -59.67    -62.60   -2.93  O2


Reaction step 7.

Using solution 1.	
Using gas phase 1.	
Using reaction 1.	

Reaction 1.	

	  2.000e-01 moles of the following reaction have been added:

	                 Relative
	Reactant            moles

	CO2                  1.00000

	                 Relative
	Element             moles
	C                    1.00000
	O                    2.00000

-----------------------------------Gas phase-----------------------------------

Total pressure: 12.65      atmospheres          (Peng-Robinson calculation)
    Gas volume:   1.00e+00 liters
  Molar volume:   1.83e+00 liters/mole
   P * Vm / RT:  0.93085  (Compressibility Factor Z) 

                                                        Moles in gas
                                            ----------------------------------
Component         log P           P    phi     Initial       Final       Delta

CO2(g)             1.10   1.261e+01  0.934   4.175e-01   5.444e-01   1.269e-01
H2O(g)            -1.32   4.741e-02  0.888   1.959e-03   2.047e-03   8.841e-05

-----------------------------Solution composition------------------------------

	Elements           Molality       Moles

	C                 3.556e-01   3.556e-01

----------------------------Description of solution----------------------------

                                       pH  =   3.388      Charge balance
                                       pe  =   1.933      Adjusted to redox equilibrium
       Specific Conductance (uS/cm, 30 oC) = 181
                          Density (g/cm3)  =   1.00145
                        Activity of water  =   0.994
                           Ionic strength  =   4.190e-04
                       Mass of water (kg)  =   1.000e+00
                 Total alkalinity (eq/kg)  =   7.040e-13
                       Total CO2 (mol/kg)  =   3.556e-01
                      Temperature (deg C)  =  30.00
                           Pressure (atm)  = 12.65
                  Electrical balance (eq)  =  -7.039e-13
 Percent error, 100*(Cat-|An|)/(Cat+|An|)  =  -0.00
                               Iterations  =  20
                                  Total H  = 1.110083e+02
                                  Total O  = 5.621542e+01

----------------------------Distribution of species----------------------------

                                               Log       Log       Log    mole V
   Species          Molality    Activity  Molality  Activity     Gamma   cm3/mol

   H+              4.190e-04   4.095e-04    -3.378    -3.388    -0.010      0.00
   OH-             3.663e-11   3.578e-11   -10.436   -10.446    -0.010     -3.85
   H2O             5.551e+01   9.939e-01     1.744    -0.003     0.000     18.09
C(-4)         5.039e-20
   CH4             5.039e-20   5.040e-20   -19.298   -19.298     0.000     32.22
C(4)          3.556e-01
   CO2             3.552e-01   3.553e-01    -0.449    -0.449     0.000     29.07
   HCO3-           4.190e-04   4.093e-04    -3.378    -3.388    -0.010     24.87
   CO3-2           5.732e-11   5.220e-11   -10.242   -10.282    -0.041     -3.52
H(0)          3.043e-14
   H2              1.521e-14   1.522e-14   -13.818   -13.818     0.000     28.60
O(0)          0.000e+00
   O2              0.000e+00   0.000e+00   -63.173   -63.173     0.000     30.75

------------------------------Saturation indices-------------------------------

	Phase               SI   log IAP   log K(303 K,  13 atm)

	CH4(g)          -16.43    -19.30   -2.87  CH4
	CO2(g)            1.06     -0.45   -1.51  CO2	 Pressure  12.6 atm, phi 0.934.
	H2(g)           -10.71    -13.82   -3.11  H2
	H2O(g)           -1.38     -0.00    1.37  H2O	 Pressure   0.0 atm, phi 0.888.
	O2(g)           -60.24    -63.17   -2.93  O2


Reaction step 8.

Using solution 1.	
Using gas phase 1.	
Using reaction 1.	

Reaction 1.	

	  2.000e-01 moles of the following reaction have been added:

	                 Relative
	Reactant            moles

	CO2                  1.00000

	                 Relative
	Element             moles
	C                    1.00000
	O                    2.00000

-----------------------------------Gas phase-----------------------------------

Total pressure: 15.41      atmospheres          (Peng-Robinson calculation)
    Gas volume:   1.00e+00 liters
  Molar volume:   1.48e+00 liters/mole
   P * Vm / RT:  0.91514  (Compressibility Factor Z) 

                                                        Moles in gas
                                            ----------------------------------
Component         log P           P    phi     Initial       Final       Delta

CO2(g)             1.19   1.536e+01  0.921   5.444e-01   6.746e-01   1.302e-01
H2O(g)            -1.31   4.875e-02  0.864   2.047e-03   2.141e-03   9.400e-05

-----------------------------Solution composition------------------------------

	Elements           Molality       Moles

	C                 4.254e-01   4.254e-01

----------------------------Description of solution----------------------------

                                       pH  =   3.349      Charge balance
                                       pe  =   1.932      Adjusted to redox equilibrium
       Specific Conductance (uS/cm, 30 oC) = 199
                          Density (g/cm3)  =   1.00259
                        Activity of water  =   0.993
                           Ionic strength  =   4.590e-04
                       Mass of water (kg)  =   1.000e+00
                 Total alkalinity (eq/kg)  =   1.268e-12
                       Total CO2 (mol/kg)  =   4.254e-01
                      Temperature (deg C)  =  30.00
                           Pressure (atm)  = 15.41
                  Electrical balance (eq)  =  -1.268e-12
 Percent error, 100*(Cat-|An|)/(Cat+|An|)  =  -0.00
                               Iterations  =  23
                                  Total H  = 1.110082e+02
                                  Total O  = 5.635483e+01

----------------------------Distribution of species----------------------------

                                               Log       Log       Log    mole V
   Species          Molality    Activity  Molality  Activity     Gamma   cm3/mol

   H+              4.590e-04   4.482e-04    -3.338    -3.349    -0.010      0.00
   OH-             3.355e-11   3.273e-11   -10.474   -10.485    -0.011     -3.84
   H2O             5.551e+01   9.928e-01     1.744    -0.003     0.000     18.08
C(-4)         1.258e-19
   CH4             1.258e-19   1.259e-19   -18.900   -18.900     0.000     32.22
C(4)          4.254e-01
   CO2             4.249e-01   4.250e-01    -0.372    -0.372     0.000     29.08
   HCO3-           4.590e-04   4.479e-04    -3.338    -3.349    -0.011     24.88
   CO3-2           5.774e-11   5.236e-11   -10.239   -10.281    -0.042     -3.49
H(0)          3.648e-14
   H2              1.824e-14   1.824e-14   -13.739   -13.739     0.000     28.59
O(0)          0.000e+00
   O2              0.000e+00   0.000e+00   -63.334   -63.334     0.000     30.75

------------------------------Saturation indices-------------------------------

	Phase               SI   log IAP   log K(303 K,  15 atm)

	CH4(g)          -16.04    -18.90   -2.87  CH4
	CO2(g)            1.14     -0.37   -1.51  CO2	 Pressure  15.4 atm, phi 0.921.
	H2(g)           -10.63    -13.74   -3.11  H2
	H2O(g)           -1.38     -0.00    1.37  H2O	 Pressure   0.0 atm, phi 0.864.
	O2(g)           -60.40    -63.33   -2.94  O2


Reaction step 9.

Using solution 1.	
Using gas phase 1.	
Using reaction 1.	

Reaction 1.	

	  2.000e-01 moles of the following reaction have been added:

	                 Relative
	Reactant            moles

	CO2                  1.00000

	                 Relative
	Element             moles
	C                    1.00000
	O                    2.00000

-----------------------------------Gas phase-----------------------------------

Total pressure: 18.13      atmospheres          (Peng-Robinson calculation)
    Gas volume:   1.00e+00 liters
  Molar volume:   1.23e+00 liters/mole
   P * Vm / RT:  0.89931  (Compressibility Factor Z) 

                                                        Moles in gas
                                            ----------------------------------
Component         log P           P    phi     Initial       Final       Delta

CO2(g)             1.26   1.808e+01  0.907   6.746e-01   8.083e-01   1.336e-01
H2O(g)            -1.30   5.014e-02  0.841   2.141e-03   2.241e-03   9.993e-05

-----------------------------Solution composition------------------------------

	Elements           Molality       Moles

	C                 4.918e-01   4.917e-01

----------------------------Description of solution----------------------------

                                       pH  =   3.317      Charge balance
                                       pe  =   1.952      Adjusted to redox equilibrium
       Specific Conductance (uS/cm, 30 oC) = 214
                          Density (g/cm3)  =   1.00367
                        Activity of water  =   0.992
                           Ionic strength  =   4.943e-04
                       Mass of water (kg)  =   1.000e+00
                 Total alkalinity (eq/kg)  =   1.560e-12
                       Total CO2 (mol/kg)  =   4.918e-01
                      Temperature (deg C)  =  30.00
                           Pressure (atm)  = 18.13
                  Electrical balance (eq)  =  -1.560e-12
 Percent error, 100*(Cat-|An|)/(Cat+|An|)  =  -0.00
                               Iterations  =  25
                                  Total H  = 1.110080e+02
                                  Total O  = 5.648745e+01

----------------------------Distribution of species----------------------------

                                               Log       Log       Log    mole V
   Species          Molality    Activity  Molality  Activity     Gamma   cm3/mol

   H+              4.943e-04   4.822e-04    -3.306    -3.317    -0.011      0.00
   OH-             3.125e-11   3.046e-11   -10.505   -10.516    -0.011     -3.83
   H2O             5.551e+01   9.916e-01     1.744    -0.004     0.000     18.08
C(-4)         1.798e-19
   CH4             1.798e-19   1.798e-19   -18.745   -18.745     0.000     32.22
C(4)          4.918e-01
   CO2             4.913e-01   4.913e-01    -0.309    -0.309     0.000     29.09
   HCO3-           4.943e-04   4.819e-04    -3.306    -3.317    -0.011     24.89
   CO3-2           5.812e-11   5.252e-11   -10.236   -10.280    -0.044     -3.47
H(0)          3.836e-14
   H2              1.918e-14   1.918e-14   -13.717   -13.717     0.000     28.59
O(0)          0.000e+00
   O2              0.000e+00   0.000e+00   -63.382   -63.382     0.000     30.74

------------------------------Saturation indices-------------------------------

	Phase               SI   log IAP   log K(303 K,  18 atm)

	CH4(g)          -15.88    -18.75   -2.86  CH4
	CO2(g)            1.20     -0.31   -1.51  CO2	 Pressure  18.1 atm, phi 0.907.
	H2(g)           -10.61    -13.72   -3.11  H2
	H2O(g)           -1.38     -0.00    1.37  H2O	 Pressure   0.1 atm, phi 0.841.
	O2(g)           -60.44    -63.38   -2.94  O2


Reaction step 10.

Using solution 1.	
Using gas phase 1.	
Using reaction 1.	

Reaction 1.	

	  1.000e+00 moles of the following reaction have been added:

	                 Relative
	Reactant            moles

	CO2                  1.00000

	                 Relative
	Element             moles
	C                    1.00000
	O                    2.00000

-----------------------------------Gas phase-----------------------------------

Total pressure: 31.16      atmospheres          (Peng-Robinson calculation)
    Gas volume:   1.00e+00 liters
  Molar volume:   6.54e-01 liters/mole
   P * Vm / RT:  0.81893  (Compressibility Factor Z) 

                                                        Moles in gas
                                            ----------------------------------
Component         log P           P    phi     Initial       Final       Delta

CO2(g)             1.49   3.110e+01  0.842   8.083e-01   1.527e+00   7.183e-01
H2O(g)            -1.24   5.790e-02  0.732   2.241e-03   2.842e-03   6.010e-04

-----------------------------Solution composition------------------------------

	Elements           Molality       Moles

	C                 7.735e-01   7.735e-01

----------------------------Description of solution----------------------------

                                       pH  =   3.217      Charge balance
                                       pe  =   2.110      Adjusted to redox equilibrium
       Specific Conductance (uS/cm, 30 oC) = 269
                          Density (g/cm3)  =   1.00827
                        Activity of water  =   0.987
                           Ionic strength  =   6.239e-04
                       Mass of water (kg)  =   9.999e-01
                 Total alkalinity (eq/kg)  =   1.277e-12
                       Total CO2 (mol/kg)  =   7.735e-01
                      Temperature (deg C)  =  30.00
                           Pressure (atm)  = 31.16
                  Electrical balance (eq)  =  -1.277e-12
 Percent error, 100*(Cat-|An|)/(Cat+|An|)  =  -0.00
                               Iterations  =  24
                                  Total H  = 1.110067e+02
                                  Total O  = 5.705029e+01

----------------------------Distribution of species----------------------------

                                               Log       Log       Log    mole V
   Species          Molality    Activity  Molality  Activity     Gamma   cm3/mol

   H+              6.239e-04   6.070e-04    -3.205    -3.217    -0.012      0.00
   OH-             2.507e-11   2.436e-11   -10.601   -10.613    -0.012     -3.78
   H2O             5.551e+01   9.868e-01     1.744    -0.006     0.000     18.07
C(-4)         9.653e-20
   CH4             9.653e-20   9.654e-20   -19.015   -19.015     0.000     32.22
C(4)          7.735e-01
   CO2             7.729e-01   7.730e-01    -0.112    -0.112     0.000     29.15
   HCO3-           6.239e-04   6.065e-04    -3.205    -3.217    -0.012     24.93
   CO3-2           5.968e-11   5.329e-11   -10.224   -10.273    -0.049     -3.36
H(0)          2.896e-14
   H2              1.448e-14   1.448e-14   -13.839   -13.839     0.000     28.59
O(0)          0.000e+00
   O2              0.000e+00   0.000e+00   -63.153   -63.153     0.000     30.72

------------------------------Saturation indices-------------------------------

	Phase               SI   log IAP   log K(303 K,  31 atm)

	CH4(g)          -16.17    -19.02   -2.85  CH4
	CO2(g)            1.39     -0.11   -1.50  CO2	 Pressure  31.1 atm, phi 0.842.
	H2(g)           -10.73    -13.84   -3.11  H2
	H2O(g)           -1.37     -0.01    1.37  H2O	 Pressure   0.1 atm, phi 0.732.
	O2(g)           -60.21    -63.15   -2.95  O2


Reaction step 11.

Using solution 1.	
Using gas phase 1.	
Using reaction 1.	

Reaction 1.	

	  1.000e+00 moles of the following reaction have been added:

	                 Relative
	Reactant            moles

	CO2                  1.00000

	                 Relative
	Element             moles
	C                    1.00000
	O                    2.00000

-----------------------------------Gas phase-----------------------------------

Total pressure: 42.73      atmospheres          (Peng-Robinson calculation)
    Gas volume:   1.00e+00 liters
  Molar volume:   4.30e-01 liters/mole
   P * Vm / RT:  0.73830  (Compressibility Factor Z) 

                                                        Moles in gas
                                            ----------------------------------
Component         log P           P    phi     Initial       Final       Delta

CO2(g)             1.63   4.267e+01  0.786   1.527e+00   2.323e+00   7.965e-01
H2O(g)            -1.17   6.697e-02  0.636   2.842e-03   3.646e-03   8.039e-04

-----------------------------Solution composition------------------------------

	Elements           Molality       Moles

	C                 9.771e-01   9.770e-01

----------------------------Description of solution----------------------------

                                       pH  =   3.165      Charge balance
                                       pe  =   2.234      Adjusted to redox equilibrium
       Specific Conductance (uS/cm, 30 oC) = 304
                          Density (g/cm3)  =   1.01162
                        Activity of water  =   0.983
                           Ionic strength  =   7.048e-04
                       Mass of water (kg)  =   9.999e-01
                 Total alkalinity (eq/kg)  =   1.183e-12
                       Total CO2 (mol/kg)  =   9.771e-01
                      Temperature (deg C)  =  30.00
                           Pressure (atm)  = 42.73
                  Electrical balance (eq)  =  -1.183e-12
 Percent error, 100*(Cat-|An|)/(Cat+|An|)  =  -0.00
                               Iterations  =  18
                                  Total H  = 1.110051e+02
                                  Total O  = 5.745652e+01

----------------------------Distribution of species----------------------------

                                               Log       Log       Log    mole V
   Species          Molality    Activity  Molality  Activity     Gamma   cm3/mol

   H+              7.048e-04   6.846e-04    -3.152    -3.165    -0.013      0.00
   OH-             2.241e-11   2.174e-11   -10.650   -10.663    -0.013     -3.74
   H2O             5.551e+01   9.834e-01     1.744    -0.007     0.000     18.06
C(-4)         3.214e-20
   CH4             3.214e-20   3.215e-20   -19.493   -19.493     0.000     32.22
C(4)          9.771e-01
   CO2             9.763e-01   9.765e-01    -0.010    -0.010     0.000     29.20
   HCO3-           7.048e-04   6.840e-04    -3.152    -3.165    -0.013     24.97
   CO3-2           6.087e-11   5.399e-11   -10.216   -10.268    -0.052     -3.27
H(0)          2.053e-14
   H2              1.027e-14   1.027e-14   -13.989   -13.988     0.000     28.58
O(0)          0.000e+00
   O2              0.000e+00   0.000e+00   -62.868   -62.868     0.000     30.70

------------------------------Saturation indices-------------------------------

	Phase               SI   log IAP   log K(303 K,  43 atm)

	CH4(g)          -16.66    -19.49   -2.84  CH4
	CO2(g)            1.49     -0.01   -1.50  CO2	 Pressure  42.7 atm, phi 0.786.
	H2(g)           -10.88    -13.99   -3.11  H2
	H2O(g)           -1.37     -0.01    1.36  H2O	 Pressure   0.1 atm, phi 0.636.
	O2(g)           -59.92    -62.87   -2.95  O2


Reaction step 12.

Using solution 1.	
Using gas phase 1.	
Using reaction 1.	

Reaction 1.	

	  1.000e+00 moles of the following reaction have been added:

	                 Relative
	Reactant            moles

	CO2                  1.00000

	                 Relative
	Element             moles
	C                    1.00000
	O                    2.00000

-----------------------------------Gas phase-----------------------------------

Total pressure: 52.38      atmospheres          (Peng-Robinson calculation)
    Gas volume:   1.00e+00 liters
  Molar volume:   3.13e-01 liters/mole
   P * Vm / RT:  0.65996  (Compressibility Factor Z) 

                                                        Moles in gas
                                            ----------------------------------
Component         log P           P    phi     Initial       Final       Delta

CO2(g)             1.72   5.230e+01  0.740   2.323e+00   3.186e+00   8.627e-01
H2O(g)            -1.11   7.717e-02  0.554   3.646e-03   4.701e-03   1.054e-03

-----------------------------Solution composition------------------------------

	Elements           Molality       Moles

	C                 1.114e+00   1.114e+00

----------------------------Description of solution----------------------------

                                       pH  =   3.135      Charge balance
                                       pe  =   2.164      Adjusted to redox equilibrium
       Specific Conductance (uS/cm, 30 oC) = 326
                          Density (g/cm3)  =   1.01392
                        Activity of water  =   0.981
                           Ionic strength  =   7.558e-04
                       Mass of water (kg)  =   9.999e-01
                 Total alkalinity (eq/kg)  =   1.124e-12
                       Total CO2 (mol/kg)  =   1.114e+00
                      Temperature (deg C)  =  30.00
                           Pressure (atm)  = 52.38
                  Electrical balance (eq)  =  -1.124e-12
 Percent error, 100*(Cat-|An|)/(Cat+|An|)  =  -0.00
                               Iterations  =  25
                                  Total H  = 1.110030e+02
                                  Total O  = 5.773013e+01

----------------------------Distribution of species----------------------------

                                               Log       Log       Log    mole V
   Species          Molality    Activity  Molality  Activity     Gamma   cm3/mol

   H+              7.558e-04   7.335e-04    -3.122    -3.135    -0.013      0.00
   OH-             2.106e-11   2.041e-11   -10.676   -10.690    -0.014     -3.70
   H2O             5.551e+01   9.810e-01     1.744    -0.008     0.000     18.05
C(-4)         2.259e-19
   CH4             2.259e-19   2.260e-19   -18.646   -18.646     0.000     32.22
C(4)          1.114e+00
   CO2             1.114e+00   1.114e+00     0.047     0.047     0.000     29.24
   HCO3-           7.558e-04   7.328e-04    -3.122    -3.135    -0.013     25.00
   CO3-2           6.178e-11   5.458e-11   -10.209   -10.263    -0.054     -3.20
H(0)          3.208e-14
   H2              1.604e-14   1.604e-14   -13.795   -13.795     0.000     28.58
O(0)          0.000e+00
   O2              0.000e+00   0.000e+00   -63.267   -63.267     0.000     30.68

------------------------------Saturation indices-------------------------------

	Phase               SI   log IAP   log K(303 K,  52 atm)

	CH4(g)          -15.82    -18.65   -2.83  CH4
	CO2(g)            1.54      0.05   -1.50  CO2	 Pressure  52.3 atm, phi 0.740.
	H2(g)           -10.68    -13.79   -3.11  H2
	H2O(g)           -1.37     -0.01    1.36  H2O	 Pressure   0.1 atm, phi 0.554.
	O2(g)           -60.31    -63.27   -2.96  O2


Reaction step 13.

Using solution 1.	
Using gas phase 1.	
Using reaction 1.	

Reaction 1.	

	  1.000e+00 moles of the following reaction have been added:

	                 Relative
	Reactant            moles

	CO2                  1.00000

	                 Relative
	Element             moles
	C                    1.00000
	O                    2.00000

-----------------------------------Gas phase-----------------------------------

Total pressure: 59.85      atmospheres          (Peng-Robinson calculation)
    Gas volume:   1.00e+00 liters
  Molar volume:   2.44e-01 liters/mole
   P * Vm / RT:  0.58605  (Compressibility Factor Z) 

                                                        Moles in gas
                                            ----------------------------------
Component         log P           P    phi     Initial       Final       Delta

CO2(g)             1.78   5.976e+01  0.704   3.186e+00   4.099e+00   9.137e-01
H2O(g)            -1.05   8.822e-02  0.487   4.701e-03   6.051e-03   1.350e-03

-----------------------------Solution composition------------------------------

	Elements           Molality       Moles

	C                 1.201e+00   1.201e+00

----------------------------Description of solution----------------------------

                                       pH  =   3.117      Charge balance
                                       pe  =   2.077      Adjusted to redox equilibrium
       Specific Conductance (uS/cm, 30 oC) = 339
                          Density (g/cm3)  =   1.01540
                        Activity of water  =   0.980
                           Ionic strength  =   7.871e-04
                       Mass of water (kg)  =   9.999e-01
                 Total alkalinity (eq/kg)  =   1.166e-12
                       Total CO2 (mol/kg)  =   1.201e+00
                      Temperature (deg C)  =  30.00
                           Pressure (atm)  = 59.85
                  Electrical balance (eq)  =  -1.166e-12
 Percent error, 100*(Cat-|An|)/(Cat+|An|)  =  -0.00
                               Iterations  =  30
                                  Total H  = 1.110003e+02
                                  Total O  = 5.790139e+01

----------------------------Distribution of species----------------------------

                                               Log       Log       Log    mole V
   Species          Molality    Activity  Molality  Activity     Gamma   cm3/mol

   H+              7.871e-04   7.634e-04    -3.104    -3.117    -0.013      0.00
   OH-             2.035e-11   1.971e-11   -10.691   -10.705    -0.014     -3.68
   H2O             5.551e+01   9.796e-01     1.744    -0.009     0.000     18.05
C(-4)         1.674e-18
   CH4             1.674e-18   1.674e-18   -17.776   -17.776     0.000     32.22
C(4)          1.201e+00
   CO2             1.200e+00   1.200e+00     0.079     0.079     0.000     29.27
   HCO3-           7.871e-04   7.626e-04    -3.104    -3.118    -0.014     25.03
   CO3-2           6.244e-11   5.504e-11   -10.205   -10.259    -0.055     -3.14
H(0)          5.161e-14
   H2              2.581e-14   2.581e-14   -13.588   -13.588     0.000     28.57
O(0)          0.000e+00
   O2              0.000e+00   0.000e+00   -63.688   -63.688     0.000     30.67

------------------------------Saturation indices-------------------------------

	Phase               SI   log IAP   log K(303 K,  60 atm)

	CH4(g)          -14.96    -17.78   -2.82  CH4
	CO2(g)            1.57      0.08   -1.49  CO2	 Pressure  59.8 atm, phi 0.704.
	H2(g)           -10.48    -13.59   -3.11  H2
	H2O(g)           -1.37     -0.01    1.36  H2O	 Pressure   0.1 atm, phi 0.487.
	O2(g)           -60.72    -63.69   -2.96  O2


Reaction step 14.

Using solution 1.	
Using gas phase 1.	
Using reaction 1.	

Reaction 1.	

	  1.000e+00 moles of the following reaction have been added:

	                 Relative
	Reactant            moles

	CO2                  1.00000

	                 Relative
	Element             moles
	C                    1.00000
	O                    2.00000

-----------------------------------Gas phase-----------------------------------

Total pressure: 65.17      atmospheres          (Peng-Robinson calculation)
    Gas volume:   1.00e+00 liters
  Molar volume:   1.98e-01 liters/mole
   P * Vm / RT:  0.51806  (Compressibility Factor Z) 

                                                        Moles in gas
                                            ----------------------------------
Component         log P           P    phi     Initial       Final       Delta

CO2(g)             1.81   6.507e+01  0.678   4.099e+00   5.049e+00   9.499e-01
H2O(g)            -1.00   9.974e-02  0.432   6.051e-03   7.740e-03   1.689e-03

-----------------------------Solution composition------------------------------

	Elements           Molality       Moles

	C                 1.251e+00   1.251e+00

----------------------------Description of solution----------------------------

                                       pH  =   3.108      Charge balance
                                       pe  =   2.065      Adjusted to redox equilibrium
       Specific Conductance (uS/cm, 30 oC) = 347
                          Density (g/cm3)  =   1.01630
                        Activity of water  =   0.979
                           Ionic strength  =   8.052e-04
                       Mass of water (kg)  =   9.998e-01
                 Total alkalinity (eq/kg)  =   1.003e-12
                       Total CO2 (mol/kg)  =   1.251e+00
                      Temperature (deg C)  =  30.00
                           Pressure (atm)  = 65.17
                  Electrical balance (eq)  =  -1.002e-12
 Percent error, 100*(Cat-|An|)/(Cat+|An|)  =  -0.00
                               Iterations  =  33
                                  Total H  = 1.109970e+02
                                  Total O  = 5.799993e+01

----------------------------Distribution of species----------------------------

                                               Log       Log       Log    mole V
   Species          Molality    Activity  Molality  Activity     Gamma   cm3/mol

   H+              8.052e-04   7.807e-04    -3.094    -3.108    -0.013      0.00
   OH-             1.998e-11   1.934e-11   -10.699   -10.713    -0.014     -3.66
   H2O             5.551e+01   9.787e-01     1.744    -0.009     0.000     18.04
C(-4)         2.572e-18
   CH4             2.572e-18   2.573e-18   -17.590   -17.590     0.000     32.22
C(4)          1.251e+00
   CO2             1.250e+00   1.250e+00     0.097     0.097     0.000     29.29
   HCO3-           8.052e-04   7.799e-04    -3.094    -3.108    -0.014     25.04
   CO3-2           6.290e-11   5.536e-11   -10.201   -10.257    -0.055     -3.10
H(0)          5.662e-14
   H2              2.831e-14   2.832e-14   -13.548   -13.548     0.000     28.57
O(0)          0.000e+00
   O2              0.000e+00   0.000e+00   -63.774   -63.774     0.000     30.66

------------------------------Saturation indices-------------------------------

	Phase               SI   log IAP   log K(303 K,  65 atm)

	CH4(g)          -14.77    -17.59   -2.82  CH4
	CO2(g)            1.59      0.10   -1.49  CO2	 Pressure  65.1 atm, phi 0.678.
	H2(g)           -10.44    -13.55   -3.11  H2
	H2O(g)           -1.37     -0.01    1.36  H2O	 Pressure   0.1 atm, phi 0.432.
	O2(g)           -60.81    -63.77   -2.97  O2


Reaction step 15.

Using solution 1.	
Using gas phase 1.	
Using reaction 1.	

Reaction 1.	

	  1.000e+00 moles of the following reaction have been added:

	                 Relative
	Reactant            moles

	CO2                  1.00000

	                 Relative
	Element             moles
	C                    1.00000
	O                    2.00000

-----------------------------------Gas phase-----------------------------------

Total pressure: 68.56      atmospheres          (Peng-Robinson calculation)
    Gas volume:   1.00e+00 liters
  Molar volume:   1.66e-01 liters/mole
   P * Vm / RT:  0.45681  (Compressibility Factor Z) 

                                                        Moles in gas
                                            ----------------------------------
Component         log P           P    phi     Initial       Final       Delta

CO2(g)             1.84   6.844e+01  0.661   5.049e+00   6.023e+00   9.738e-01
H2O(g)            -0.95   1.114e-01  0.387   7.740e-03   9.805e-03   2.065e-03

-----------------------------Solution composition------------------------------

	Elements           Molality       Moles

	C                 1.277e+00   1.277e+00

----------------------------Description of solution----------------------------

                                       pH  =   3.102      Charge balance
                                       pe  =   2.086      Adjusted to redox equilibrium
       Specific Conductance (uS/cm, 30 oC) = 351
                          Density (g/cm3)  =   1.01679
                        Activity of water  =   0.978
                           Ionic strength  =   8.148e-04
                       Mass of water (kg)  =   9.998e-01
                 Total alkalinity (eq/kg)  =   1.114e-12
                       Total CO2 (mol/kg)  =   1.277e+00
                      Temperature (deg C)  =  30.00
                           Pressure (atm)  = 68.56
                  Electrical balance (eq)  =  -1.114e-12
 Percent error, 100*(Cat-|An|)/(Cat+|An|)  =  -0.00
                               Iterations  =  37
                                  Total H  = 1.109928e+02
                                  Total O  = 5.805036e+01

----------------------------Distribution of species----------------------------

                                               Log       Log       Log    mole V
   Species          Molality    Activity  Molality  Activity     Gamma   cm3/mol

   H+              8.148e-04   7.899e-04    -3.089    -3.102    -0.013      0.00
   OH-             1.980e-11   1.917e-11   -10.703   -10.717    -0.014     -3.64
   H2O             5.551e+01   9.783e-01     1.744    -0.010     0.000     18.04
C(-4)         1.954e-18
   CH4             1.954e-18   1.955e-18   -17.709   -17.709     0.000     32.22
C(4)          1.277e+00
   CO2             1.276e+00   1.277e+00     0.106     0.106     0.000     29.30
   HCO3-           8.148e-04   7.891e-04    -3.089    -3.103    -0.014     25.05
   CO3-2           6.318e-11   5.557e-11   -10.199   -10.255    -0.056     -3.08
H(0)          5.245e-14
   H2              2.622e-14   2.623e-14   -13.581   -13.581     0.000     28.57
O(0)          0.000e+00
   O2              0.000e+00   0.000e+00   -63.711   -63.711     0.000     30.66

------------------------------Saturation indices-------------------------------

	Phase               SI   log IAP   log K(303 K,  69 atm)

	CH4(g)          -14.90    -17.71   -2.81  CH4
	CO2(g)            1.60      0.11   -1.49  CO2	 Pressure  68.4 atm, phi 0.661.
	H2(g)           -10.47    -13.58   -3.11  H2
	H2O(g)           -1.37     -0.01    1.36  H2O	 Pressure   0.1 atm, phi 0.387.
	O2(g)           -60.74    -63.71   -2.97  O2


Reaction step 16.

Using solution 1.	
Using gas phase 1.	
Using reaction 1.	

Reaction 1.	

	  1.000e+00 moles of the following reaction have been added:

	                 Relative
	Reactant            moles

	CO2                  1.00000

	                 Relative
	Element             moles
	C                    1.00000
	O                    2.00000

-----------------------------------Gas phase-----------------------------------

Total pressure: 70.35      atmospheres          (Peng-Robinson calculation)
    Gas volume:   1.00e+00 liters
  Molar volume:   1.42e-01 liters/mole
   P * Vm / RT:  0.40265  (Compressibility Factor Z) 

                                                        Moles in gas
                                            ----------------------------------
Component         log P           P    phi     Initial       Final       Delta

CO2(g)             1.85   7.023e+01  0.651   6.023e+00   7.011e+00   9.884e-01
H2O(g)            -0.91   1.230e-01  0.351   9.805e-03   1.228e-02   2.475e-03

-----------------------------Solution composition------------------------------

	Elements           Molality       Moles

	C                 1.289e+00   1.289e+00

----------------------------Description of solution----------------------------

                                       pH  =   3.100      Charge balance
                                       pe  =   2.059      Adjusted to redox equilibrium
       Specific Conductance (uS/cm, 30 oC) = 353
                          Density (g/cm3)  =   1.01701
                        Activity of water  =   0.978
                           Ionic strength  =   8.191e-04
                       Mass of water (kg)  =   9.998e-01
                 Total alkalinity (eq/kg)  =   1.126e-12
                       Total CO2 (mol/kg)  =   1.289e+00
                      Temperature (deg C)  =  30.00
                           Pressure (atm)  = 70.35
                  Electrical balance (eq)  =  -1.125e-12
 Percent error, 100*(Cat-|An|)/(Cat+|An|)  =  -0.00
                               Iterations  =  45
                                  Total H  = 1.109879e+02
                                  Total O  = 5.807105e+01

----------------------------Distribution of species----------------------------

                                               Log       Log       Log    mole V
   Species          Molality    Activity  Molality  Activity     Gamma   cm3/mol

   H+              8.191e-04   7.940e-04    -3.087    -3.100    -0.014      0.00
   OH-             1.973e-11   1.909e-11   -10.705   -10.719    -0.014     -3.64
   H2O             5.551e+01   9.781e-01     1.744    -0.010     0.000     18.04
C(-4)         3.366e-18
   CH4             3.366e-18   3.366e-18   -17.473   -17.473     0.000     32.22
C(4)          1.289e+00
   CO2             1.288e+00   1.288e+00     0.110     0.110     0.000     29.31
   HCO3-           8.191e-04   7.932e-04    -3.087    -3.101    -0.014     25.06
   CO3-2           6.333e-11   5.568e-11   -10.198   -10.254    -0.056     -3.06
H(0)          5.986e-14
   H2              2.993e-14   2.993e-14   -13.524   -13.524     0.000     28.57
O(0)          0.000e+00
   O2              0.000e+00   0.000e+00   -63.827   -63.827     0.000     30.65

------------------------------Saturation indices-------------------------------

	Phase               SI   log IAP   log K(303 K,  70 atm)

	CH4(g)          -14.66    -17.47   -2.81  CH4
	CO2(g)            1.60      0.11   -1.49  CO2	 Pressure  70.2 atm, phi 0.651.
	H2(g)           -10.41    -13.52   -3.11  H2
	H2O(g)           -1.36     -0.01    1.35  H2O	 Pressure   0.1 atm, phi 0.351.
	O2(g)           -60.86    -63.83   -2.97  O2


Reaction step 17.

Using solution 1.	
Using gas phase 1.	
Using reaction 1.	

Reaction 1.	

	  1.000e+00 moles of the following reaction have been added:

	                 Relative
	Reactant            moles

	CO2                  1.00000

	                 Relative
	Element             moles
	C                    1.00000
	O                    2.00000

-----------------------------------Gas phase-----------------------------------

Total pressure: 70.98      atmospheres          (Peng-Robinson calculation)
    Gas volume:   1.00e+00 liters
  Molar volume:   1.25e-01 liters/mole
   P * Vm / RT:  0.35562  (Compressibility Factor Z) 

                                                        Moles in gas
                                            ----------------------------------
Component         log P           P    phi     Initial       Final       Delta

CO2(g)             1.85   7.084e+01  0.648   7.011e+00   8.008e+00   9.966e-01
H2O(g)            -0.87   1.344e-01  0.321   1.228e-02   1.520e-02   2.916e-03

-----------------------------Solution composition------------------------------

	Elements           Molality       Moles

	C                 1.292e+00   1.292e+00

----------------------------Description of solution----------------------------

                                       pH  =   3.099      Charge balance
                                       pe  =   2.021      Adjusted to redox equilibrium
       Specific Conductance (uS/cm, 30 oC) = 354
                          Density (g/cm3)  =   1.01708
                        Activity of water  =   0.978
                           Ionic strength  =   8.205e-04
                       Mass of water (kg)  =   9.997e-01
                 Total alkalinity (eq/kg)  =   1.128e-12
                       Total CO2 (mol/kg)  =   1.292e+00
                      Temperature (deg C)  =  30.00
                           Pressure (atm)  = 70.98
                  Electrical balance (eq)  =  -1.128e-12
 Percent error, 100*(Cat-|An|)/(Cat+|An|)  =  -0.00
                               Iterations  =  45
                                  Total H  = 1.109820e+02
                                  Total O  = 5.807487e+01

----------------------------Distribution of species----------------------------

                                               Log       Log       Log    mole V
   Species          Molality    Activity  Molality  Activity     Gamma   cm3/mol

   H+              8.205e-04   7.953e-04    -3.086    -3.099    -0.014      0.00
   OH-             1.970e-11   1.907e-11   -10.705   -10.720    -0.014     -3.64
   H2O             5.551e+01   9.780e-01     1.744    -0.010     0.000     18.04
C(-4)         6.854e-18
   CH4             6.854e-18   6.855e-18   -17.164   -17.164     0.000     32.22
C(4)          1.292e+00
   CO2             1.291e+00   1.292e+00     0.111     0.111     0.000     29.31
   HCO3-           8.205e-04   7.945e-04    -3.086    -3.100    -0.014     25.06
   CO3-2           6.338e-11   5.572e-11   -10.198   -10.254    -0.056     -3.06
H(0)          7.142e-14
   H2              3.571e-14   3.572e-14   -13.447   -13.447     0.000     28.57
O(0)          0.000e+00
   O2              0.000e+00   0.000e+00   -63.981   -63.981     0.000     30.65

------------------------------Saturation indices-------------------------------

	Phase               SI   log IAP   log K(303 K,  71 atm)

	CH4(g)          -14.35    -17.16   -2.81  CH4
	CO2(g)            1.60      0.11   -1.49  CO2	 Pressure  70.8 atm, phi 0.648.
	H2(g)           -10.34    -13.45   -3.11  H2
	H2O(g)           -1.36     -0.01    1.35  H2O	 Pressure   0.1 atm, phi 0.321.
	O2(g)           -61.01    -63.98   -2.97  O2


Reaction step 18.

Using solution 1.	
Using gas phase 1.	
Using reaction 1.	

Reaction 1.	

	  1.000e+00 moles of the following reaction have been added:

	                 Relative
	Reactant            moles

	CO2                  1.00000

	                 Relative
	Element             moles
	C                    1.00000
	O                    2.00000

-----------------------------------Gas phase-----------------------------------

Total pressure: 70.99      atmospheres          (Peng-Robinson calculation)
    Gas volume:   1.00e+00 liters
  Molar volume:   1.11e-01 liters/mole
   P * Vm / RT:  0.31613  (Compressibility Factor Z) 

                                                        Moles in gas
                                            ----------------------------------
Component         log P           P    phi     Initial       Final       Delta

CO2(g)             1.85   7.084e+01  0.648   8.008e+00   9.008e+00   1.000e+00
H2O(g)            -0.84   1.460e-01  0.296   1.520e-02   1.857e-02   3.375e-03

-----------------------------Solution composition------------------------------

	Elements           Molality       Moles

	C                 1.292e+00   1.292e+00

----------------------------Description of solution----------------------------

                                       pH  =   3.099      Charge balance
                                       pe  =   2.015      Adjusted to redox equilibrium
       Specific Conductance (uS/cm, 30 oC) = 354
                          Density (g/cm3)  =   1.01709
                        Activity of water  =   0.978
                           Ionic strength  =   8.205e-04
                       Mass of water (kg)  =   9.997e-01
                 Total alkalinity (eq/kg)  =   1.130e-12
                       Total CO2 (mol/kg)  =   1.292e+00
                      Temperature (deg C)  =  30.00
                           Pressure (atm)  = 70.99
                  Electrical balance (eq)  =  -1.129e-12
 Percent error, 100*(Cat-|An|)/(Cat+|An|)  =  -0.00
                               Iterations  =  49
                                  Total H  = 1.109753e+02
                                  Total O  = 5.807140e+01

----------------------------Distribution of species----------------------------

                                               Log       Log       Log    mole V
   Species          Molality    Activity  Molality  Activity     Gamma   cm3/mol

   H+              8.205e-04   7.953e-04    -3.086    -3.099    -0.014      0.00
   OH-             1.970e-11   1.907e-11   -10.705   -10.720    -0.014     -3.64
   H2O             5.551e+01   9.780e-01     1.744    -0.010     0.000     18.04
C(-4)         7.593e-18
   CH4             7.593e-18   7.595e-18   -17.120   -17.119     0.000     32.22
C(4)          1.292e+00
   CO2             1.292e+00   1.292e+00     0.111     0.111     0.000     29.31
   HCO3-           8.205e-04   7.945e-04    -3.086    -3.100    -0.014     25.06
   CO3-2           6.338e-11   5.572e-11   -10.198   -10.254    -0.056     -3.06
H(0)          7.327e-14
   H2              3.664e-14   3.664e-14   -13.436   -13.436     0.000     28.57
O(0)          0.000e+00
   O2              0.000e+00   0.000e+00   -64.004   -64.003     0.000     30.65

------------------------------Saturation indices-------------------------------

	Phase               SI   log IAP   log K(303 K,  71 atm)

	CH4(g)          -14.31    -17.12   -2.81  CH4
	CO2(g)            1.60      0.11   -1.49  CO2	 Pressure  70.8 atm, phi 0.648.
	H2(g)           -10.32    -13.44   -3.11  H2
	H2O(g)           -1.36     -0.01    1.35  H2O	 Pressure   0.1 atm, phi 0.296.
	O2(g)           -61.03    -64.00   -2.97  O2


Reaction step 19.

Using solution 1.	
Using gas phase 1.	
Using reaction 1.	

Reaction 1.	

	  1.000e+00 moles of the following reaction have been added:

	                 Relative
	Reactant            moles

	CO2                  1.00000

	                 Relative
	Element             moles
	C                    1.00000
	O                    2.00000

-----------------------------------Gas phase-----------------------------------

Total pressure: 70.96      atmospheres          (Peng-Robinson calculation)
    Gas volume:   1.00e+00 liters
  Molar volume:   9.97e-02 liters/mole
   P * Vm / RT:  0.28438  (Compressibility Factor Z) 

                                                        Moles in gas
                                            ----------------------------------
Component         log P           P    phi     Initial       Final       Delta

CO2(g)             1.85   7.080e+01  0.648   9.008e+00   1.001e+01   1.000e+00
H2O(g)            -0.80   1.586e-01  0.272   1.857e-02   2.242e-02   3.846e-03

-----------------------------Solution composition------------------------------

	Elements           Molality       Moles

	C                 1.292e+00   1.292e+00

----------------------------Description of solution----------------------------

                                       pH  =   3.100      Charge balance
                                       pe  =   2.016      Adjusted to redox equilibrium
       Specific Conductance (uS/cm, 30 oC) = 354
                          Density (g/cm3)  =   1.01708
                        Activity of water  =   0.978
                           Ionic strength  =   8.204e-04
                       Mass of water (kg)  =   9.996e-01
                 Total alkalinity (eq/kg)  =   1.131e-12
                       Total CO2 (mol/kg)  =   1.292e+00
                      Temperature (deg C)  =  30.00
                           Pressure (atm)  = 70.96
                  Electrical balance (eq)  =  -1.131e-12
 Percent error, 100*(Cat-|An|)/(Cat+|An|)  =  -0.00
                               Iterations  =  49
                                  Total H  = 1.109676e+02
                                  Total O  = 5.806687e+01

----------------------------Distribution of species----------------------------

                                               Log       Log       Log    mole V
   Species          Molality    Activity  Molality  Activity     Gamma   cm3/mol

   H+              8.204e-04   7.952e-04    -3.086    -3.100    -0.014      0.00
   OH-             1.971e-11   1.907e-11   -10.705   -10.720    -0.014     -3.64
   H2O             5.551e+01   9.780e-01     1.744    -0.010     0.000     18.04
C(-4)         7.574e-18
   CH4             7.574e-18   7.575e-18   -17.121   -17.121     0.000     32.22
C(4)          1.292e+00
   CO2             1.291e+00   1.292e+00     0.111     0.111     0.000     29.31
   HCO3-           8.204e-04   7.944e-04    -3.086    -3.100    -0.014     25.06
   CO3-2           6.338e-11   5.572e-11   -10.198   -10.254    -0.056     -3.06
H(0)          7.323e-14
   H2              3.661e-14   3.662e-14   -13.436   -13.436     0.000     28.57
O(0)          0.000e+00
   O2              0.000e+00   0.000e+00   -64.003   -64.003     0.000     30.65

------------------------------Saturation indices-------------------------------

	Phase               SI   log IAP   log K(303 K,  71 atm)

	CH4(g)          -14.31    -17.12   -2.81  CH4
	CO2(g)            1.60      0.11   -1.49  CO2	 Pressure  70.8 atm, phi 0.648.
	H2(g)           -10.32    -13.44   -3.11  H2
	H2O(g)           -1.36     -0.01    1.35  H2O	 Pressure   0.2 atm, phi 0.272.
	O2(g)           -61.03    -64.00   -2.97  O2


Reaction step 20.

Using solution 1.	
Using gas phase 1.	
Using reaction 1.	

Reaction 1.	

	  1.000e+00 moles of the following reaction have been added:

	                 Relative
	Reactant            moles

	CO2                  1.00000

	                 Relative
	Element             moles
	C                    1.00000
	O                    2.00000

-----------------------------------Gas phase-----------------------------------

Total pressure: 70.94      atmospheres          (Peng-Robinson calculation)
    Gas volume:   1.00e+00 liters
  Molar volume:   9.06e-02 liters/mole
   P * Vm / RT:  0.25839  (Compressibility Factor Z) 

                                                        Moles in gas
                                            ----------------------------------
Component         log P           P    phi     Initial       Final       Delta

CO2(g)             1.85   7.076e+01  0.648   1.001e+01   1.101e+01   1.000e+00
H2O(g)            -0.76   1.721e-01  0.251   2.242e-02   2.677e-02   4.358e-03

-----------------------------Solution composition------------------------------

	Elements           Molality       Moles

	C                 1.292e+00   1.291e+00

----------------------------Description of solution----------------------------

                                       pH  =   3.100      Charge balance
                                       pe  =   2.022      Adjusted to redox equilibrium
       Specific Conductance (uS/cm, 30 oC) = 354
                          Density (g/cm3)  =   1.01708
                        Activity of water  =   0.978
                           Ionic strength  =   8.203e-04
                       Mass of water (kg)  =   9.995e-01
                 Total alkalinity (eq/kg)  =   1.131e-12
                       Total CO2 (mol/kg)  =   1.292e+00
                      Temperature (deg C)  =  30.00
                           Pressure (atm)  = 70.94
                  Electrical balance (eq)  =  -1.130e-12
 Percent error, 100*(Cat-|An|)/(Cat+|An|)  =  -0.00
                               Iterations  =  52
                                  Total H  = 1.109589e+02
                                  Total O  = 5.806162e+01

----------------------------Distribution of species----------------------------

                                               Log       Log       Log    mole V
   Species          Molality    Activity  Molality  Activity     Gamma   cm3/mol

   H+              8.203e-04   7.951e-04    -3.086    -3.100    -0.014      0.00
   OH-             1.971e-11   1.907e-11   -10.705   -10.720    -0.014     -3.64
   H2O             5.551e+01   9.780e-01     1.744    -0.010     0.000     18.04
C(-4)         6.671e-18
   CH4             6.671e-18   6.673e-18   -17.176   -17.176     0.000     32.22
C(4)          1.292e+00
   CO2             1.291e+00   1.291e+00     0.111     0.111     0.000     29.31
   HCO3-           8.203e-04   7.943e-04    -3.086    -3.100    -0.014     25.06
   CO3-2           6.337e-11   5.572e-11   -10.198   -10.254    -0.056     -3.06
H(0)          7.095e-14
   H2              3.547e-14   3.548e-14   -13.450   -13.450     0.000     28.57
O(0)          0.000e+00
   O2              0.000e+00   0.000e+00   -63.976   -63.975     0.000     30.65

------------------------------Saturation indices-------------------------------

	Phase               SI   log IAP   log K(303 K,  71 atm)

	CH4(g)          -14.37    -17.18   -2.81  CH4
	CO2(g)            1.60      0.11   -1.49  CO2	 Pressure  70.8 atm, phi 0.648.
	H2(g)           -10.34    -13.45   -3.11  H2
	H2O(g)           -1.36     -0.01    1.35  H2O	 Pressure   0.2 atm, phi 0.251.
	O2(g)           -61.00    -63.98   -2.97  O2


Reaction step 21.

Using solution 1.	
Using gas phase 1.	
Using reaction 1.	

Reaction 1.	

	  1.000e+00 moles of the following reaction have been added:

	                 Relative
	Reactant            moles

	CO2                  1.00000

	                 Relative
	Element             moles
	C                    1.00000
	O                    2.00000

-----------------------------------Gas phase-----------------------------------

Total pressure: 70.96      atmospheres          (Peng-Robinson calculation)
    Gas volume:   1.00e+00 liters
  Molar volume:   8.31e-02 liters/mole
   P * Vm / RT:  0.23691  (Compressibility Factor Z) 

                                                        Moles in gas
                                            ----------------------------------
Component         log P           P    phi     Initial       Final       Delta

CO2(g)             1.85   7.078e+01  0.648   1.101e+01   1.201e+01   1.000e+00
H2O(g)            -0.73   1.867e-01  0.231   2.677e-02   3.168e-02   4.909e-03

-----------------------------Solution composition------------------------------

	Elements           Molality       Moles

	C                 1.292e+00   1.291e+00

----------------------------Description of solution----------------------------

                                       pH  =   3.100      Charge balance
                                       pe  =   2.014      Adjusted to redox equilibrium
       Specific Conductance (uS/cm, 30 oC) = 354
                          Density (g/cm3)  =   1.01708
                        Activity of water  =   0.978
                           Ionic strength  =   8.203e-04
                       Mass of water (kg)  =   9.994e-01
                 Total alkalinity (eq/kg)  =   1.125e-12
                       Total CO2 (mol/kg)  =   1.292e+00
                      Temperature (deg C)  =  30.00
                           Pressure (atm)  = 70.96
                  Electrical balance (eq)  =  -1.125e-12
 Percent error, 100*(Cat-|An|)/(Cat+|An|)  =  -0.00
                               Iterations  =  48
                                  Total H  = 1.109491e+02
                                  Total O  = 5.805636e+01

----------------------------Distribution of species----------------------------

                                               Log       Log       Log    mole V
   Species          Molality    Activity  Molality  Activity     Gamma   cm3/mol

   H+              8.203e-04   7.951e-04    -3.086    -3.100    -0.014      0.00
   OH-             1.971e-11   1.907e-11   -10.705   -10.720    -0.014     -3.64
   H2O             5.551e+01   9.780e-01     1.744    -0.010     0.000     18.04
C(-4)         7.812e-18
   CH4             7.812e-18   7.814e-18   -17.107   -17.107     0.000     32.22
C(4)          1.292e+00
   CO2             1.291e+00   1.291e+00     0.111     0.111     0.000     29.31
   HCO3-           8.203e-04   7.943e-04    -3.086    -3.100    -0.014     25.06
   CO3-2           6.338e-11   5.572e-11   -10.198   -10.254    -0.056     -3.06
H(0)          7.380e-14
   H2              3.690e-14   3.691e-14   -13.433   -13.433     0.000     28.57
O(0)          0.000e+00
   O2              0.000e+00   0.000e+00   -64.010   -64.010     0.000     30.65

------------------------------Saturation indices-------------------------------

	Phase               SI   log IAP   log K(303 K,  71 atm)

	CH4(g)          -14.30    -17.11   -2.81  CH4
	CO2(g)            1.60      0.11   -1.49  CO2	 Pressure  70.8 atm, phi 0.648.
	H2(g)           -10.32    -13.43   -3.11  H2
	H2O(g)           -1.36     -0.01    1.35  H2O	 Pressure   0.2 atm, phi 0.231.
	O2(g)           -61.04    -64.01   -2.97  O2


Reaction step 22.

Using solution 1.	
Using gas phase 1.	
Using reaction 1.	

Reaction 1.	

	  1.000e+00 moles of the following reaction have been added:

	                 Relative
	Reactant            moles

	CO2                  1.00000

	                 Relative
	Element             moles
	C                    1.00000
	O                    2.00000

-----------------------------------Gas phase-----------------------------------

Total pressure: 72.80      atmospheres          (Peng-Robinson calculation)
    Gas volume:   1.00e+00 liters
  Molar volume:   7.67e-02 liters/mole
   P * Vm / RT:  0.22439  (Compressibility Factor Z) 

                                                        Moles in gas
                                            ----------------------------------
Component         log P           P    phi     Initial       Final       Delta

CO2(g)             1.86   7.259e+01  0.635   1.201e+01   1.300e+01   9.954e-01
H2O(g)            -0.68   2.069e-01  0.209   3.168e-02   3.706e-02   5.373e-03

-----------------------------Solution composition------------------------------

	Elements           Molality       Moles

	C                 1.296e+00   1.296e+00

----------------------------Description of solution----------------------------

                                       pH  =   3.098      Charge balance
                                       pe  =   2.001      Adjusted to redox equilibrium
       Specific Conductance (uS/cm, 30 oC) = 355
                          Density (g/cm3)  =   1.01721
                        Activity of water  =   0.978
                           Ionic strength  =   8.224e-04
                       Mass of water (kg)  =   9.993e-01
                 Total alkalinity (eq/kg)  =   1.057e-12
                       Total CO2 (mol/kg)  =   1.296e+00
                      Temperature (deg C)  =  30.00
                           Pressure (atm)  = 72.80
                  Electrical balance (eq)  =  -1.056e-12
 Percent error, 100*(Cat-|An|)/(Cat+|An|)  =  -0.00
                               Iterations  =  39
                                  Total H  = 1.109383e+02
                                  Total O  = 5.806026e+01

----------------------------Distribution of species----------------------------

                                               Log       Log       Log    mole V
   Species          Molality    Activity  Molality  Activity     Gamma   cm3/mol

   H+              8.224e-04   7.972e-04    -3.085    -3.098    -0.014      0.00
   OH-             1.969e-11   1.905e-11   -10.706   -10.720    -0.014     -3.63
   H2O             5.551e+01   9.779e-01     1.744    -0.010     0.000     18.04
C(-4)         1.013e-17
   CH4             1.013e-17   1.013e-17   -16.994   -16.994     0.000     32.22
C(4)          1.296e+00
   CO2             1.296e+00   1.296e+00     0.112     0.113     0.000     29.32
   HCO3-           8.224e-04   7.964e-04    -3.085    -3.099    -0.014     25.07
   CO3-2           6.352e-11   5.584e-11   -10.197   -10.253    -0.056     -3.05
H(0)          7.857e-14
   H2              3.929e-14   3.929e-14   -13.406   -13.406     0.000     28.57
O(0)          0.000e+00
   O2              0.000e+00   0.000e+00   -64.066   -64.066     0.000     30.65

------------------------------Saturation indices-------------------------------

	Phase               SI   log IAP   log K(303 K,  73 atm)

	CH4(g)          -14.19    -16.99   -2.81  CH4
	CO2(g)            1.60      0.11   -1.49  CO2	 Pressure  72.6 atm, phi 0.635.
	H2(g)           -10.29    -13.41   -3.11  H2
	H2O(g)           -1.36     -0.01    1.35  H2O	 Pressure   0.2 atm, phi 0.209.
	O2(g)           -61.09    -64.07   -2.97  O2


Reaction step 23.

Using solution 1.	
Using gas phase 1.	
Using reaction 1.	

Reaction 1.	

	  1.000e+00 moles of the following reaction have been added:

	                 Relative
	Reactant            moles

	CO2                  1.00000

	                 Relative
	Element             moles
	C                    1.00000
	O                    2.00000

-----------------------------------Gas phase-----------------------------------

Total pressure: 76.47      atmospheres          (Peng-Robinson calculation)
    Gas volume:   1.00e+00 liters
  Molar volume:   7.12e-02 liters/mole
   P * Vm / RT:  0.21895  (Compressibility Factor Z) 

                                                        Moles in gas
                                            ----------------------------------
Component         log P           P    phi     Initial       Final       Delta

CO2(g)             1.88   7.623e+01  0.612   1.300e+01   1.400e+01   9.917e-01
H2O(g)            -0.63   2.337e-01  0.186   3.706e-02   4.292e-02   5.859e-03

-----------------------------Solution composition------------------------------

	Elements           Molality       Moles

	C                 1.305e+00   1.304e+00

----------------------------Description of solution----------------------------

                                       pH  =   3.096      Charge balance
                                       pe  =   2.056      Adjusted to redox equilibrium
       Specific Conductance (uS/cm, 30 oC) = 356
                          Density (g/cm3)  =   1.01747
                        Activity of water  =   0.978
                           Ionic strength  =   8.265e-04
                       Mass of water (kg)  =   9.992e-01
                 Total alkalinity (eq/kg)  =   1.257e-12
                       Total CO2 (mol/kg)  =   1.305e+00
                      Temperature (deg C)  =  30.00
                           Pressure (atm)  = 76.47
                  Electrical balance (eq)  =  -1.256e-12
 Percent error, 100*(Cat-|An|)/(Cat+|An|)  =  -0.00
                               Iterations  =  34
                                  Total H  = 1.109266e+02
                                  Total O  = 5.807105e+01

----------------------------Distribution of species----------------------------

                                               Log       Log       Log    mole V
   Species          Molality    Activity  Molality  Activity     Gamma   cm3/mol

   H+              8.265e-04   8.010e-04    -3.083    -3.096    -0.014      0.00
   OH-             1.965e-11   1.902e-11   -10.707   -10.721    -0.014     -3.62
   H2O             5.551e+01   9.778e-01     1.744    -0.010     0.000     18.03
C(-4)         3.811e-18
   CH4             3.811e-18   3.812e-18   -17.419   -17.419     0.000     32.22
C(4)          1.305e+00
   CO2             1.304e+00   1.304e+00     0.115     0.115     0.000     29.34
   HCO3-           8.265e-04   8.002e-04    -3.083    -3.097    -0.014     25.08
   CO3-2           6.379e-11   5.607e-11   -10.195   -10.251    -0.056     -3.02
H(0)          6.126e-14
   H2              3.063e-14   3.064e-14   -13.514   -13.514     0.000     28.57
O(0)          0.000e+00
   O2              0.000e+00   0.000e+00   -63.853   -63.853     0.000     30.64

------------------------------Saturation indices-------------------------------

	Phase               SI   log IAP   log K(303 K,  76 atm)

	CH4(g)          -14.61    -17.42   -2.80  CH4
	CO2(g)            1.60      0.12   -1.49  CO2	 Pressure  76.2 atm, phi 0.612.
	H2(g)           -10.40    -13.51   -3.11  H2
	H2O(g)           -1.36     -0.01    1.35  H2O	 Pressure   0.2 atm, phi 0.186.
	O2(g)           -60.88    -63.85   -2.97  O2


Reaction step 24.

Using solution 1.	
Using gas phase 1.	
Using reaction 1.	

Reaction 1.	

	  1.000e+00 moles of the following reaction have been added:

	                 Relative
	Reactant            moles

	CO2                  1.00000

	                 Relative
	Element             moles
	C                    1.00000
	O                    2.00000

-----------------------------------Gas phase-----------------------------------

Total pressure: 82.61      atmospheres          (Peng-Robinson calculation)
    Gas volume:   1.00e+00 liters
  Molar volume:   6.65e-02 liters/mole
   P * Vm / RT:  0.22089  (Compressibility Factor Z) 

                                                        Moles in gas
                                            ----------------------------------
Component         log P           P    phi     Initial       Final       Delta

CO2(g)             1.92   8.233e+01  0.576   1.400e+01   1.498e+01   9.875e-01
H2O(g)            -0.57   2.705e-01  0.161   4.292e-02   4.923e-02   6.317e-03

-----------------------------Solution composition------------------------------

	Elements           Molality       Moles

	C                 1.318e+00   1.316e+00

----------------------------Description of solution----------------------------

                                       pH  =   3.093      Charge balance
                                       pe  =   2.143      Adjusted to redox equilibrium
       Specific Conductance (uS/cm, 30 oC) = 359
                          Density (g/cm3)  =   1.01787
                        Activity of water  =   0.978
                           Ionic strength  =   8.328e-04
                       Mass of water (kg)  =   9.991e-01
                 Total alkalinity (eq/kg)  =   1.331e-12
                       Total CO2 (mol/kg)  =   1.318e+00
                      Temperature (deg C)  =  30.00
                           Pressure (atm)  = 82.61
                  Electrical balance (eq)  =  -1.330e-12
 Percent error, 100*(Cat-|An|)/(Cat+|An|)  =  -0.00
                               Iterations  =  56
                                  Total H  = 1.109140e+02
                                  Total O  = 5.808973e+01

----------------------------Distribution of species----------------------------

                                               Log       Log       Log    mole V
   Species          Molality    Activity  Molality  Activity     Gamma   cm3/mol

   H+              8.328e-04   8.070e-04    -3.079    -3.093    -0.014      0.00
   OH-             1.961e-11   1.897e-11   -10.708   -10.722    -0.014     -3.60
   H2O             5.551e+01   9.776e-01     1.744    -0.010     0.000     18.03
C(-4)         8.236e-19
   CH4             8.236e-19   8.237e-19   -18.084   -18.084     0.000     32.22
C(4)          1.318e+00
   CO2             1.317e+00   1.317e+00     0.119     0.120     0.000     29.36
   HCO3-           8.328e-04   8.062e-04    -3.079    -3.094    -0.014     25.10
   CO3-2           6.426e-11   5.645e-11   -10.192   -10.248    -0.056     -2.98
H(0)          4.147e-14
   H2              2.073e-14   2.074e-14   -13.683   -13.683     0.000     28.56
O(0)          0.000e+00
   O2              0.000e+00   0.000e+00   -63.520   -63.520     0.000     30.64

------------------------------Saturation indices-------------------------------

	Phase               SI   log IAP   log K(303 K,  83 atm)

	CH4(g)          -15.29    -18.08   -2.80  CH4
	CO2(g)            1.60      0.12   -1.48  CO2	 Pressure  82.3 atm, phi 0.576.
	H2(g)           -10.57    -13.68   -3.11  H2
	H2O(g)           -1.36     -0.01    1.35  H2O	 Pressure   0.3 atm, phi 0.161.
	O2(g)           -60.54    -63.52   -2.98  O2


------------------
End of simulation.
------------------

------------------------------------
Reading input data for simulation 2.
------------------------------------

------------------------------
End of Run after 0.04 Seconds.
------------------------------

