WARNING: Database file from DATABASE keyword is used; command line argument ignored.
   Input file: CO2_conc_PR_IS
  Output file: CO2_conc_PR_IS.out
Database file: ../database/phreeqc.dat

------------------
Reading data base.
------------------

	SOLUTION_MASTER_SPECIES
	SOLUTION_SPECIES
	PHASES
	EXCHANGE_MASTER_SPECIES
	EXCHANGE_SPECIES
	SURFACE_MASTER_SPECIES
	SURFACE_SPECIES
	RATES
	END
------------------------------------
Reading input data for simulation 1.
------------------------------------

	DATABASE ../database/phreeqc.dat
	SOLUTION 1
	SELECTED_OUTPUT
	 reset false
	 file co2.prn
	USER_PUNCH
	  1 sc$ = chr$(59)
	 10 for i = 1.1 to 520 step 20
	 20   punch 'SOLUTION 1' + sc$ + ' -temp 25' + sc$ + ' pH 3 charge' + EOL$ + 'C(4) 1 CO2(g) ' + str$(log10(i)) + sc$ + '-pressure ' + str$(i) + EOL$ + 'END' + EOL$
	 30 next i
	END
-------------------------------------------
Beginning of initial solution calculations.
-------------------------------------------

Initial solution 1.	

WARNING: USER_PUNCH: Headings count does not match number of calls to PUNCH.

-----------------------------Solution composition------------------------------

	Elements           Molality       Moles

	Pure water     

----------------------------Description of solution----------------------------

                                       pH  =   7.000    
                                       pe  =   4.000    
       Specific Conductance (uS/cm, 25 oC) = 0
                          Density (g/cm3)  =   0.99704
                               Volume (L)  =   1.00297
                        Activity of water  =   1.000
                           Ionic strength  =   1.007e-07
                       Mass of water (kg)  =   1.000e+00
                 Total alkalinity (eq/kg)  =   1.217e-09
                    Total carbon (mol/kg)  =   0.000e+00
                       Total CO2 (mol/kg)  =   0.000e+00
                      Temperature (deg C)  =  25.00
                  Electrical balance (eq)  =  -1.217e-09
 Percent error, 100*(Cat-|An|)/(Cat+|An|)  =  -0.60
                               Iterations  =   0
                                  Total H  = 1.110124e+02
                                  Total O  = 5.550622e+01

----------------------------Distribution of species----------------------------

                                               Log       Log       Log    mole V
   Species          Molality    Activity  Molality  Activity     Gamma   cm3/mol

   OH-             1.013e-07   1.012e-07    -6.995    -6.995    -0.000     -4.14
   H+              1.001e-07   1.000e-07    -7.000    -7.000    -0.000      0.00
   H2O             5.551e+01   1.000e+00     1.744     0.000     0.000     18.07
H(0)          1.416e-25
   H2              7.079e-26   7.079e-26   -25.150   -25.150     0.000     28.61
O(0)          0.000e+00
   O2              0.000e+00   0.000e+00   -42.080   -42.080     0.000     30.40

------------------------------Saturation indices-------------------------------

	Phase               SI   log IAP   log K(298 K,   1 atm)

	H2(g)           -22.05    -25.15   -3.10  H2
	H2O(g)           -1.50      0.00    1.50  H2O
	O2(g)           -39.19    -42.08   -2.89  O2


------------------
End of simulation.
------------------

------------------------------------
Reading input data for simulation 2.
------------------------------------

	SELECTED_OUTPUT
	 selected_out false
WARNING: Use PRINT; -selected_output, not SELECTED_OUTPUT; -selected_output
	USER_GRAPH
	 -chart_title "Using: Initial Equilibrations"
	 -plot_csv_file co2.dat
	 -axis_titles "Pressure / atm" "CO2 / (mol/kgw)"
	 -axis_scale x_axis 0 500
	 -axis_scale y_axis 0 2
	 -initial_solutions true
	 10 x = PR_P("CO2(g)")
	 20 graph_x x # tot("Na")
	 30 graph_y tot("C(4)")
	 -end
	SOLUTION 1
	 temp 25
	 pH 3 charge
	C(4) 1 CO2(g)   4.1393e-02
	pressure   1.1000e+00
	END
-------------------------------------------
Beginning of initial solution calculations.
-------------------------------------------

Initial solution 1.	

-----------------------------Solution composition------------------------------

	Elements           Molality       Moles

	C(4)              3.791e-02   3.791e-02  Equilibrium with CO2(g)

----------------------------Description of solution----------------------------

                                       pH  =   3.887      Charge balance
                                       pe  =   4.000    
       Specific Conductance (uS/cm, 25 oC) = 51
                          Density (g/cm3)  =   0.99762
                               Volume (L)  =   1.00593
                        Activity of water  =   0.999
                           Ionic strength  =   1.313e-04
                       Mass of water (kg)  =   1.000e+00
                 Total alkalinity (eq/kg)  =  -1.015e-13
                       Total CO2 (mol/kg)  =   3.791e-02
                      Temperature (deg C)  =  25.00
                           Pressure (atm)  =  1.10
                  Electrical balance (eq)  =   1.015e-13
 Percent error, 100*(Cat-|An|)/(Cat+|An|)  =   0.00
                               Iterations  =   5
                                  Total H  = 1.110127e+02
                                  Total O  = 5.558218e+01

----------------------------Distribution of species----------------------------

                                               Log       Log       Log    mole V
   Species          Molality    Activity  Molality  Activity     Gamma   cm3/mol

   H+              1.313e-04   1.296e-04    -3.882    -3.887    -0.006      0.00
   OH-             7.909e-11   7.805e-11   -10.102   -10.108    -0.006     -4.13
   H2O             5.551e+01   9.994e-01     1.744    -0.000     0.000     18.07
C(4)          3.791e-02
   CO2             3.778e-02   3.778e-02    -1.423    -1.423     0.000     29.09
   HCO3-           1.313e-04   1.296e-04    -3.882    -3.887    -0.006     24.69
   CO3-2           4.944e-11   4.689e-11   -10.306   -10.329    -0.023     -5.58
H(0)          2.378e-19
   H2              1.189e-19   1.189e-19   -18.925   -18.925     0.000     28.61
O(0)          0.000e+00
   O2              0.000e+00   0.000e+00   -54.531   -54.531     0.000     30.40

------------------------------Saturation indices-------------------------------

	Phase               SI   log IAP   log K(298 K,   1 atm)

	CO2(g)            0.04     -1.42   -1.46  CO2	 Pressure   1.1 atm, phi 0.994
	H2(g)           -15.82    -18.92   -3.10  H2
	H2O(g)           -1.50     -0.00    1.50  H2O
	O2(g)           -51.64    -54.53   -2.89  O2


------------------
End of simulation.
------------------

------------------------------------
Reading input data for simulation 3.
------------------------------------

		SOLUTION 1
	 temp 25
	 pH 3 charge
	C(4) 1 CO2(g)   1.3243e+00
	pressure   2.1100e+01
	END
-------------------------------------------
Beginning of initial solution calculations.
-------------------------------------------

Initial solution 1.	

-----------------------------Solution composition------------------------------

	Elements           Molality       Moles

	C(4)              6.316e-01   6.316e-01  Equilibrium with CO2(g)

----------------------------Description of solution----------------------------

                                       pH  =   3.274      Charge balance
                                       pe  =   4.000    
       Specific Conductance (uS/cm, 25 oC) = 211
                          Density (g/cm3)  =   1.00718
                               Volume (L)  =   1.05122
                        Activity of water  =   0.989
                           Ionic strength  =   5.459e-04
                       Mass of water (kg)  =   1.000e+00
                 Total alkalinity (eq/kg)  =  -4.278e-15
                       Total CO2 (mol/kg)  =   6.316e-01
                      Temperature (deg C)  =  25.00
                           Pressure (atm)  = 21.10
                  Electrical balance (eq)  =   4.278e-15
 Percent error, 100*(Cat-|An|)/(Cat+|An|)  =   0.00
                               Iterations  =   6
                                  Total H  = 1.110135e+02
                                  Total O  = 5.677001e+01

----------------------------Distribution of species----------------------------

                                               Log       Log       Log    mole V
   Species          Molality    Activity  Molality  Activity     Gamma   cm3/mol

   H+              5.459e-04   5.321e-04    -3.263    -3.274    -0.011      0.00
   OH-             1.968e-11   1.916e-11   -10.706   -10.718    -0.012     -4.04
   H2O             5.551e+01   9.893e-01     1.744    -0.005     0.000     18.05
C(4)          6.316e-01
   CO2             6.311e-01   6.312e-01    -0.200    -0.200     0.000     29.18
   HCO3-           5.459e-04   5.317e-04    -3.263    -3.274    -0.011     24.72
   CO3-2           5.337e-11   4.804e-11   -10.273   -10.318    -0.046     -5.33
H(0)          3.915e-18
   H2              1.957e-18   1.958e-18   -17.708   -17.708     0.000     28.60
O(0)          0.000e+00
   O2              0.000e+00   0.000e+00   -56.991   -56.991     0.000     30.37

------------------------------Saturation indices-------------------------------

	Phase               SI   log IAP   log K(298 K,  21 atm)

	CO2(g)            1.27     -0.20   -1.47  CO2	 Pressure  21.1 atm, phi 0.886
	H2(g)           -14.60    -17.71   -3.11  H2
	H2O(g)           -1.50     -0.00    1.50  H2O
	O2(g)           -54.09    -56.99   -2.90  O2


------------------
End of simulation.
------------------

------------------------------------
Reading input data for simulation 4.
------------------------------------

		SOLUTION 1
	 temp 25
	 pH 3 charge
	C(4) 1 CO2(g)   1.6138e+00
	pressure   4.1100e+01
	END
-------------------------------------------
Beginning of initial solution calculations.
-------------------------------------------

Initial solution 1.	

-----------------------------Solution composition------------------------------

	Elements           Molality       Moles

	C(4)              1.061e+00   1.061e+00  Equilibrium with CO2(g)

----------------------------Description of solution----------------------------

                                       pH  =   3.159      Charge balance
                                       pe  =   4.000    
       Specific Conductance (uS/cm, 25 oC) = 276
                          Density (g/cm3)  =   1.01406
                               Volume (L)  =   1.08348
                        Activity of water  =   0.982
                           Ionic strength  =   7.140e-04
                       Mass of water (kg)  =   1.000e+00
                 Total alkalinity (eq/kg)  =   5.198e-14
                       Total CO2 (mol/kg)  =   1.061e+00
                      Temperature (deg C)  =  25.00
                           Pressure (atm)  = 41.10
                  Electrical balance (eq)  =  -5.198e-14
 Percent error, 100*(Cat-|An|)/(Cat+|An|)  =  -0.00
                               Iterations  =   6
                                  Total H  = 1.110139e+02
                                  Total O  = 5.762909e+01

----------------------------Distribution of species----------------------------

                                               Log       Log       Log    mole V
   Species          Molality    Activity  Molality  Activity     Gamma   cm3/mol

   H+              7.140e-04   6.936e-04    -3.146    -3.159    -0.013      0.00
   OH-             1.531e-11   1.486e-11   -10.815   -10.828    -0.013     -3.96
   H2O             5.551e+01   9.819e-01     1.744    -0.008     0.000     18.04
C(4)          1.061e+00
   CO2             1.060e+00   1.061e+00     0.025     0.026     0.000     29.26
   HCO3-           7.140e-04   6.930e-04    -3.146    -3.159    -0.013     24.75
   CO3-2           5.546e-11   4.921e-11   -10.256   -10.308    -0.052     -5.11
H(0)          6.498e-18
   H2              3.249e-18   3.250e-18   -17.488   -17.488     0.000     28.59
O(0)          0.000e+00
   O2              0.000e+00   0.000e+00   -57.456   -57.456     0.000     30.34

------------------------------Saturation indices-------------------------------

	Phase               SI   log IAP   log K(298 K,  41 atm)

	CO2(g)            1.51      0.03   -1.48  CO2	 Pressure  41.1 atm, phi 0.783
	H2(g)           -14.37    -17.49   -3.12  H2
	H2O(g)           -1.50     -0.01    1.49  H2O
	O2(g)           -54.54    -57.46   -2.91  O2


------------------
End of simulation.
------------------

------------------------------------
Reading input data for simulation 5.
------------------------------------

		SOLUTION 1
	 temp 25
	 pH 3 charge
	C(4) 1 CO2(g)   1.7860e+00
	pressure   6.1100e+01
	END
-------------------------------------------
Beginning of initial solution calculations.
-------------------------------------------

Initial solution 1.	

-----------------------------Solution composition------------------------------

	Elements           Molality       Moles

	C(4)              1.337e+00   1.337e+00  Equilibrium with CO2(g)

----------------------------Description of solution----------------------------

                                       pH  =   3.106      Charge balance
                                       pe  =   4.000    
       Specific Conductance (uS/cm, 25 oC) = 312
                          Density (g/cm3)  =   1.01863
                               Volume (L)  =   1.10383
                        Activity of water  =   0.977
                           Ionic strength  =   8.085e-04
                       Mass of water (kg)  =   1.000e+00
                 Total alkalinity (eq/kg)  =   6.181e-19
                       Total CO2 (mol/kg)  =   1.337e+00
                      Temperature (deg C)  =  25.00
                           Pressure (atm)  = 61.10
                  Electrical balance (eq)  =  -6.181e-19
 Percent error, 100*(Cat-|An|)/(Cat+|An|)  =  -0.00
                               Iterations  =   7
                                  Total H  = 1.110141e+02
                                  Total O  = 5.818139e+01

----------------------------Distribution of species----------------------------

                                               Log       Log       Log    mole V
   Species          Molality    Activity  Molality  Activity     Gamma   cm3/mol

   H+              8.085e-04   7.841e-04    -3.092    -3.106    -0.013      0.00
   OH-             1.375e-11   1.331e-11   -10.862   -10.876    -0.014     -3.89
   H2O             5.551e+01   9.773e-01     1.744    -0.010     0.000     18.02
C(4)          1.337e+00
   CO2             1.336e+00   1.337e+00     0.126     0.126     0.000     29.35
   HCO3-           8.085e-04   7.833e-04    -3.092    -3.106    -0.014     24.77
   CO3-2           5.720e-11   5.039e-11   -10.243   -10.298    -0.055     -4.90
H(0)          8.112e-18
   H2              4.056e-18   4.057e-18   -17.392   -17.392     0.000     28.58
O(0)          0.000e+00
   O2              0.000e+00   0.000e+00   -57.671   -57.671     0.000     30.31

------------------------------Saturation indices-------------------------------

	Phase               SI   log IAP   log K(298 K,  61 atm)

	CO2(g)            1.62      0.13   -1.49  CO2	 Pressure  61.1 atm, phi 0.680
	H2(g)           -14.26    -17.39   -3.13  H2
	H2O(g)           -1.49     -0.01    1.48  H2O
	O2(g)           -54.75    -57.67   -2.92  O2


------------------
End of simulation.
------------------

------------------------------------
Reading input data for simulation 6.
------------------------------------

		SOLUTION 1
	 temp 25
	 pH 3 charge
	C(4) 1 CO2(g)   1.9090e+00
	pressure   8.1100e+01
	END
-------------------------------------------
Beginning of initial solution calculations.
-------------------------------------------

Initial solution 1.	

-----------------------------Solution composition------------------------------

	Elements           Molality       Moles

	C(4)              1.394e+00   1.394e+00  Equilibrium with CO2(g)

----------------------------Description of solution----------------------------

                                       pH  =   3.093      Charge balance
                                       pe  =   4.000    
       Specific Conductance (uS/cm, 25 oC) = 322
                          Density (g/cm3)  =   1.02016
                               Volume (L)  =   1.10732
                        Activity of water  =   0.976
                           Ionic strength  =   8.330e-04
                       Mass of water (kg)  =   1.000e+00
                 Total alkalinity (eq/kg)  =   2.940e-18
                       Total CO2 (mol/kg)  =   1.394e+00
                      Temperature (deg C)  =  25.00
                           Pressure (atm)  = 81.10
                  Electrical balance (eq)  =  -2.940e-18
 Percent error, 100*(Cat-|An|)/(Cat+|An|)  =  -0.00
                               Iterations  =   7
                                  Total H  = 1.110141e+02
                                  Total O  = 5.829422e+01

----------------------------Distribution of species----------------------------

                                               Log       Log       Log    mole V
   Species          Molality    Activity  Molality  Activity     Gamma   cm3/mol

   H+              8.330e-04   8.075e-04    -3.079    -3.093    -0.014      0.00
   OH-             1.358e-11   1.314e-11   -10.867   -10.881    -0.014     -3.82
   H2O             5.551e+01   9.763e-01     1.744    -0.010     0.000     18.00
C(4)          1.394e+00
   CO2             1.393e+00   1.393e+00     0.144     0.144     0.000     29.43
   HCO3-           8.330e-04   8.067e-04    -3.079    -3.093    -0.014     24.79
   CO3-2           5.867e-11   5.160e-11   -10.232   -10.287    -0.056     -4.70
H(0)          8.407e-18
   H2              4.203e-18   4.204e-18   -17.376   -17.376     0.000     28.57
O(0)          0.000e+00
   O2              0.000e+00   0.000e+00   -57.721   -57.721     0.000     30.28

------------------------------Saturation indices-------------------------------

	Phase               SI   log IAP   log K(298 K,  81 atm)

	CO2(g)            1.65      0.14   -1.50  CO2	 Pressure  81.1 atm, phi 0.547
	H2(g)           -14.23    -17.38   -3.14  H2
	H2O(g)           -1.49     -0.01    1.48  H2O
	O2(g)           -54.79    -57.72   -2.94  O2


------------------
End of simulation.
------------------

------------------------------------
Reading input data for simulation 7.
------------------------------------

		SOLUTION 1
	 temp 25
	 pH 3 charge
	C(4) 1 CO2(g)   2.0048e+00
	pressure   1.0110e+02
	END
-------------------------------------------
Beginning of initial solution calculations.
-------------------------------------------

Initial solution 1.	

-----------------------------Solution composition------------------------------

	Elements           Molality       Moles

	C(4)              1.426e+00   1.426e+00  Equilibrium with CO2(g)

----------------------------Description of solution----------------------------

                                       pH  =   3.084      Charge balance
                                       pe  =   4.000    
       Specific Conductance (uS/cm, 25 oC) = 328
                          Density (g/cm3)  =   1.02136
                               Volume (L)  =   1.10897
                        Activity of water  =   0.976
                           Ionic strength  =   8.506e-04
                       Mass of water (kg)  =   1.000e+00
                 Total alkalinity (eq/kg)  =  -4.989e-19
                       Total CO2 (mol/kg)  =   1.426e+00
                      Temperature (deg C)  =  25.00
                           Pressure (atm)  = 101.10
                  Electrical balance (eq)  =   4.989e-19
 Percent error, 100*(Cat-|An|)/(Cat+|An|)  =   0.00
                               Iterations  =   7
                                  Total H  = 1.110141e+02
                                  Total O  = 5.835904e+01

----------------------------Distribution of species----------------------------

                                               Log       Log       Log    mole V
   Species          Molality    Activity  Molality  Activity     Gamma   cm3/mol

   H+              8.506e-04   8.243e-04    -3.070    -3.084    -0.014      0.00
   OH-             1.353e-11   1.310e-11   -10.869   -10.883    -0.014     -3.75
   H2O             5.551e+01   9.757e-01     1.744    -0.011     0.000     17.99
C(4)          1.426e+00
   CO2             1.425e+00   1.425e+00     0.154     0.154     0.000     29.51
   HCO3-           8.506e-04   8.235e-04    -3.070    -3.084    -0.014     24.81
   CO3-2           6.013e-11   5.282e-11   -10.221   -10.277    -0.056     -4.50
H(0)          8.558e-18
   H2              4.279e-18   4.280e-18   -17.369   -17.369     0.000     28.56
O(0)          0.000e+00
   O2              0.000e+00   0.000e+00   -57.756   -57.756     0.000     30.26

------------------------------Saturation indices-------------------------------

	Phase               SI   log IAP   log K(298 K, 101 atm)

	CO2(g)            1.67      0.15   -1.51  CO2	 Pressure 101.1 atm, phi 0.460
	H2(g)           -14.22    -17.37   -3.15  H2
	H2O(g)           -1.48     -0.01    1.47  H2O
	O2(g)           -54.81    -57.76   -2.95  O2


------------------
End of simulation.
------------------

------------------------------------
Reading input data for simulation 8.
------------------------------------

		SOLUTION 1
	 temp 25
	 pH 3 charge
	C(4) 1 CO2(g)   2.0831e+00
	pressure   1.2110e+02
	END
-------------------------------------------
Beginning of initial solution calculations.
-------------------------------------------

Initial solution 1.	

-----------------------------Solution composition------------------------------

	Elements           Molality       Moles

	C(4)              1.455e+00   1.455e+00  Equilibrium with CO2(g)

----------------------------Description of solution----------------------------

                                       pH  =   3.076      Charge balance
                                       pe  =   4.000    
       Specific Conductance (uS/cm, 25 oC) = 335
                          Density (g/cm3)  =   1.02250
                               Volume (L)  =   1.11035
                        Activity of water  =   0.975
                           Ionic strength  =   8.672e-04
                       Mass of water (kg)  =   1.000e+00
                 Total alkalinity (eq/kg)  =  -2.942e-18
                       Total CO2 (mol/kg)  =   1.455e+00
                      Temperature (deg C)  =  25.00
                           Pressure (atm)  = 121.10
                  Electrical balance (eq)  =   2.942e-18
 Percent error, 100*(Cat-|An|)/(Cat+|An|)  =   0.00
                               Iterations  =   7
                                  Total H  = 1.110142e+02
                                  Total O  = 5.841659e+01

----------------------------Distribution of species----------------------------

                                               Log       Log       Log    mole V
   Species          Molality    Activity  Molality  Activity     Gamma   cm3/mol

   H+              8.672e-04   8.402e-04    -3.062    -3.076    -0.014      0.00
   OH-             1.351e-11   1.307e-11   -10.869   -10.884    -0.014     -3.67
   H2O             5.551e+01   9.753e-01     1.744    -0.011     0.000     17.97
C(4)          1.455e+00
   CO2             1.454e+00   1.454e+00     0.163     0.163     0.000     29.59
   HCO3-           8.672e-04   8.394e-04    -3.062    -3.076    -0.014     24.83
   CO3-2           6.160e-11   5.405e-11   -10.210   -10.267    -0.057     -4.30
H(0)          8.687e-18
   H2              4.344e-18   4.344e-18   -17.362   -17.362     0.000     28.55
O(0)          0.000e+00
   O2              0.000e+00   0.000e+00   -57.787   -57.787     0.000     30.23

------------------------------Saturation indices-------------------------------

	Phase               SI   log IAP   log K(298 K, 121 atm)

	CO2(g)            1.69      0.16   -1.52  CO2	 Pressure 121.1 atm, phi 0.402
	H2(g)           -14.20    -17.36   -3.16  H2
	H2O(g)           -1.48     -0.01    1.46  H2O
	O2(g)           -54.83    -57.79   -2.96  O2


------------------
End of simulation.
------------------

------------------------------------
Reading input data for simulation 9.
------------------------------------

		SOLUTION 1
	 temp 25
	 pH 3 charge
	C(4) 1 CO2(g)   2.1495e+00
	pressure   1.4110e+02
	END
-------------------------------------------
Beginning of initial solution calculations.
-------------------------------------------

Initial solution 1.	

-----------------------------Solution composition------------------------------

	Elements           Molality       Moles

	C(4)              1.481e+00   1.481e+00  Equilibrium with CO2(g)

----------------------------Description of solution----------------------------

                                       pH  =   3.068      Charge balance
                                       pe  =   4.000    
       Specific Conductance (uS/cm, 25 oC) = 341
                          Density (g/cm3)  =   1.02360
                               Volume (L)  =   1.11157
                        Activity of water  =   0.975
                           Ionic strength  =   8.834e-04
                       Mass of water (kg)  =   1.000e+00
                 Total alkalinity (eq/kg)  =  -8.825e-19
                       Total CO2 (mol/kg)  =   1.481e+00
                      Temperature (deg C)  =  25.00
                           Pressure (atm)  = 141.10
                  Electrical balance (eq)  =   8.825e-19
 Percent error, 100*(Cat-|An|)/(Cat+|An|)  =   0.00
                               Iterations  =   7
                                  Total H  = 1.110142e+02
                                  Total O  = 5.846958e+01

----------------------------Distribution of species----------------------------

                                               Log       Log       Log    mole V
   Species          Molality    Activity  Molality  Activity     Gamma   cm3/mol

   H+              8.834e-04   8.557e-04    -3.054    -3.068    -0.014      0.00
   OH-             1.349e-11   1.305e-11   -10.870   -10.885    -0.015     -3.61
   H2O             5.551e+01   9.748e-01     1.744    -0.011     0.000     17.96
C(4)          1.481e+00
   CO2             1.480e+00   1.481e+00     0.170     0.170     0.000     29.67
   HCO3-           8.834e-04   8.548e-04    -3.054    -3.068    -0.014     24.85
   CO3-2           6.308e-11   5.530e-11   -10.200   -10.257    -0.057     -4.11
H(0)          8.802e-18
   H2              4.401e-18   4.402e-18   -17.356   -17.356     0.000     28.54
O(0)          0.000e+00
   O2              0.000e+00   0.000e+00   -57.817   -57.817     0.000     30.20

------------------------------Saturation indices-------------------------------

	Phase               SI   log IAP   log K(298 K, 141 atm)

	CO2(g)            1.71      0.17   -1.54  CO2	 Pressure 141.1 atm, phi 0.360
	H2(g)           -14.18    -17.36   -3.17  H2
	H2O(g)           -1.47     -0.01    1.46  H2O
	O2(g)           -54.85    -57.82   -2.97  O2


------------------
End of simulation.
------------------

-------------------------------------
Reading input data for simulation 10.
-------------------------------------

		SOLUTION 1
	 temp 25
	 pH 3 charge
	C(4) 1 CO2(g)   2.2071e+00
	pressure   1.6110e+02
	END
-------------------------------------------
Beginning of initial solution calculations.
-------------------------------------------

Initial solution 1.	

-----------------------------Solution composition------------------------------

	Elements           Molality       Moles

	C(4)              1.506e+00   1.506e+00  Equilibrium with CO2(g)

----------------------------Description of solution----------------------------

                                       pH  =   3.060      Charge balance
                                       pe  =   4.000    
       Specific Conductance (uS/cm, 25 oC) = 347
                          Density (g/cm3)  =   1.02467
                               Volume (L)  =   1.11264
                        Activity of water  =   0.974
                           Ionic strength  =   8.992e-04
                       Mass of water (kg)  =   1.000e+00
                 Total alkalinity (eq/kg)  =  -2.116e-19
                       Total CO2 (mol/kg)  =   1.506e+00
                      Temperature (deg C)  =  25.00
                           Pressure (atm)  = 161.10
                  Electrical balance (eq)  =   2.116e-19
 Percent error, 100*(Cat-|An|)/(Cat+|An|)  =   0.00
                               Iterations  =   7
                                  Total H  = 1.110142e+02
                                  Total O  = 5.851898e+01

----------------------------Distribution of species----------------------------

                                               Log       Log       Log    mole V
   Species          Molality    Activity  Molality  Activity     Gamma   cm3/mol

   H+              8.992e-04   8.708e-04    -3.046    -3.060    -0.014      0.00
   OH-             1.348e-11   1.303e-11   -10.870   -10.885    -0.015     -3.54
   H2O             5.551e+01   9.744e-01     1.744    -0.011     0.000     17.94
C(4)          1.506e+00
   CO2             1.505e+00   1.505e+00     0.178     0.178     0.000     29.75
   HCO3-           8.992e-04   8.699e-04    -3.046    -3.061    -0.014     24.87
   CO3-2           6.458e-11   5.655e-11   -10.190   -10.248    -0.058     -3.91
H(0)          8.906e-18
   H2              4.453e-18   4.454e-18   -17.351   -17.351     0.000     28.53
O(0)          0.000e+00
   O2              0.000e+00   0.000e+00   -57.846   -57.846     0.000     30.17

------------------------------Saturation indices-------------------------------

	Phase               SI   log IAP   log K(298 K, 161 atm)

	CO2(g)            1.72      0.18   -1.55  CO2	 Pressure 161.1 atm, phi 0.328
	H2(g)           -14.17    -17.35   -3.18  H2
	H2O(g)           -1.46     -0.01    1.45  H2O
	O2(g)           -54.87    -57.85   -2.98  O2


------------------
End of simulation.
------------------

-------------------------------------
Reading input data for simulation 11.
-------------------------------------

		SOLUTION 1
	 temp 25
	 pH 3 charge
	C(4) 1 CO2(g)   2.2579e+00
	pressure   1.8110e+02
	END
-------------------------------------------
Beginning of initial solution calculations.
-------------------------------------------

Initial solution 1.	

-----------------------------Solution composition------------------------------

	Elements           Molality       Moles

	C(4)              1.529e+00   1.529e+00  Equilibrium with CO2(g)

----------------------------Description of solution----------------------------

                                       pH  =   3.053      Charge balance
                                       pe  =   4.000    
       Specific Conductance (uS/cm, 25 oC) = 353
                          Density (g/cm3)  =   1.02572
                               Volume (L)  =   1.11361
                        Activity of water  =   0.974
                           Ionic strength  =   9.147e-04
                       Mass of water (kg)  =   1.000e+00
                 Total alkalinity (eq/kg)  =   1.088e-18
                       Total CO2 (mol/kg)  =   1.529e+00
                      Temperature (deg C)  =  25.00
                           Pressure (atm)  = 181.10
                  Electrical balance (eq)  =  -1.088e-18
 Percent error, 100*(Cat-|An|)/(Cat+|An|)  =  -0.00
                               Iterations  =   7
                                  Total H  = 1.110143e+02
                                  Total O  = 5.856531e+01

----------------------------Distribution of species----------------------------

                                               Log       Log       Log    mole V
   Species          Molality    Activity  Molality  Activity     Gamma   cm3/mol

   H+              9.147e-04   8.857e-04    -3.039    -3.053    -0.014      0.00
   OH-             1.348e-11   1.303e-11   -10.870   -10.885    -0.015     -3.47
   H2O             5.551e+01   9.740e-01     1.744    -0.011     0.000     17.92
C(4)          1.529e+00
   CO2             1.528e+00   1.528e+00     0.184     0.184     0.000     29.82
   HCO3-           9.147e-04   8.847e-04    -3.039    -3.053    -0.015     24.89
   CO3-2           6.610e-11   5.783e-11   -10.180   -10.238    -0.058     -3.72
H(0)          9.001e-18
   H2              4.500e-18   4.501e-18   -17.347   -17.347     0.000     28.52
O(0)          0.000e+00
   O2              0.000e+00   0.000e+00   -57.874   -57.874     0.000     30.15

------------------------------Saturation indices-------------------------------

	Phase               SI   log IAP   log K(298 K, 181 atm)

	CO2(g)            1.74      0.18   -1.56  CO2	 Pressure 181.1 atm, phi 0.304
	H2(g)           -14.15    -17.35   -3.19  H2
	H2O(g)           -1.46     -0.01    1.45  H2O
	O2(g)           -54.88    -57.87   -2.99  O2


------------------
End of simulation.
------------------

-------------------------------------
Reading input data for simulation 12.
-------------------------------------

		SOLUTION 1
	 temp 25
	 pH 3 charge
	C(4) 1 CO2(g)   2.3034e+00
	pressure   2.0110e+02
	END
-------------------------------------------
Beginning of initial solution calculations.
-------------------------------------------

Initial solution 1.	

-----------------------------Solution composition------------------------------

	Elements           Molality       Moles

	C(4)              1.551e+00   1.551e+00  Equilibrium with CO2(g)

----------------------------Description of solution----------------------------

                                       pH  =   3.046      Charge balance
                                       pe  =   4.000    
       Specific Conductance (uS/cm, 25 oC) = 359
                          Density (g/cm3)  =   1.02675
                               Volume (L)  =   1.11448
                        Activity of water  =   0.974
                           Ionic strength  =   9.301e-04
                       Mass of water (kg)  =   1.000e+00
                 Total alkalinity (eq/kg)  =  -2.907e-18
                       Total CO2 (mol/kg)  =   1.551e+00
                      Temperature (deg C)  =  25.00
                           Pressure (atm)  = 201.10
                  Electrical balance (eq)  =   2.907e-18
 Percent error, 100*(Cat-|An|)/(Cat+|An|)  =   0.00
                               Iterations  =   7
                                  Total H  = 1.110143e+02
                                  Total O  = 5.860920e+01

----------------------------Distribution of species----------------------------

                                               Log       Log       Log    mole V
   Species          Molality    Activity  Molality  Activity     Gamma   cm3/mol

   H+              9.301e-04   9.003e-04    -3.031    -3.046    -0.014      0.00
   OH-             1.348e-11   1.303e-11   -10.870   -10.885    -0.015     -3.40
   H2O             5.551e+01   9.736e-01     1.744    -0.012     0.000     17.91
C(4)          1.551e+00
   CO2             1.550e+00   1.550e+00     0.190     0.190     0.000     29.90
   HCO3-           9.301e-04   8.993e-04    -3.031    -3.046    -0.015     24.90
   CO3-2           6.763e-11   5.911e-11   -10.170   -10.228    -0.058     -3.53
H(0)          9.088e-18
   H2              4.544e-18   4.545e-18   -17.343   -17.342     0.000     28.52
O(0)          0.000e+00
   O2              0.000e+00   0.000e+00   -57.901   -57.901     0.000     30.12

------------------------------Saturation indices-------------------------------

	Phase               SI   log IAP   log K(298 K, 201 atm)

	CO2(g)            1.76      0.19   -1.57  CO2	 Pressure 201.1 atm, phi 0.285
	H2(g)           -14.14    -17.34   -3.20  H2
	H2O(g)           -1.45     -0.01    1.44  H2O
	O2(g)           -54.90    -57.90   -3.00  O2


------------------
End of simulation.
------------------

-------------------------------------
Reading input data for simulation 13.
-------------------------------------

		SOLUTION 1
	 temp 25
	 pH 3 charge
	C(4) 1 CO2(g)   2.3446e+00
	pressure   2.2110e+02
	END
-------------------------------------------
Beginning of initial solution calculations.
-------------------------------------------

Initial solution 1.	

-----------------------------Solution composition------------------------------

	Elements           Molality       Moles

	C(4)              1.572e+00   1.572e+00  Equilibrium with CO2(g)

----------------------------Description of solution----------------------------

                                       pH  =   3.039      Charge balance
                                       pe  =   4.000    
       Specific Conductance (uS/cm, 25 oC) = 365
                          Density (g/cm3)  =   1.02775
                               Volume (L)  =   1.11528
                        Activity of water  =   0.973
                           Ionic strength  =   9.454e-04
                       Mass of water (kg)  =   1.000e+00
                 Total alkalinity (eq/kg)  =   7.717e-19
                       Total CO2 (mol/kg)  =   1.572e+00
                      Temperature (deg C)  =  25.00
                           Pressure (atm)  = 221.10
                  Electrical balance (eq)  =  -7.717e-19
 Percent error, 100*(Cat-|An|)/(Cat+|An|)  =  -0.00
                               Iterations  =   7
                                  Total H  = 1.110143e+02
                                  Total O  = 5.865095e+01

----------------------------Distribution of species----------------------------

                                               Log       Log       Log    mole V
   Species          Molality    Activity  Molality  Activity     Gamma   cm3/mol

   H+              9.454e-04   9.149e-04    -3.024    -3.039    -0.014      0.00
   OH-             1.349e-11   1.303e-11   -10.870   -10.885    -0.015     -3.34
   H2O             5.551e+01   9.733e-01     1.744    -0.012     0.000     17.89
C(4)          1.572e+00
   CO2             1.571e+00   1.571e+00     0.196     0.196     0.000     29.97
   HCO3-           9.454e-04   9.139e-04    -3.024    -3.039    -0.015     24.92
   CO3-2           6.918e-11   6.041e-11   -10.160   -10.219    -0.059     -3.35
H(0)          9.169e-18
   H2              4.584e-18   4.585e-18   -17.339   -17.339     0.000     28.51
O(0)          0.000e+00
   O2              0.000e+00   0.000e+00   -57.927   -57.927     0.000     30.09

------------------------------Saturation indices-------------------------------

	Phase               SI   log IAP   log K(298 K, 221 atm)

	CO2(g)            1.77      0.20   -1.58  CO2	 Pressure 221.1 atm, phi 0.269
	H2(g)           -14.13    -17.34   -3.21  H2
	H2O(g)           -1.44     -0.01    1.43  H2O
	O2(g)           -54.92    -57.93   -3.01  O2


------------------
End of simulation.
------------------

-------------------------------------
Reading input data for simulation 14.
-------------------------------------

		SOLUTION 1
	 temp 25
	 pH 3 charge
	C(4) 1 CO2(g)   2.3822e+00
	pressure   2.4110e+02
	END
-------------------------------------------
Beginning of initial solution calculations.
-------------------------------------------

Initial solution 1.	

-----------------------------Solution composition------------------------------

	Elements           Molality       Moles

	C(4)              1.592e+00   1.592e+00  Equilibrium with CO2(g)

----------------------------Description of solution----------------------------

                                       pH  =   3.032      Charge balance
                                       pe  =   4.000    
       Specific Conductance (uS/cm, 25 oC) = 370
                          Density (g/cm3)  =   1.02874
                               Volume (L)  =   1.11600
                        Activity of water  =   0.973
                           Ionic strength  =   9.605e-04
                       Mass of water (kg)  =   1.000e+00
                 Total alkalinity (eq/kg)  =  -4.334e-18
                       Total CO2 (mol/kg)  =   1.592e+00
                      Temperature (deg C)  =  25.00
                           Pressure (atm)  = 241.10
                  Electrical balance (eq)  =   4.334e-18
 Percent error, 100*(Cat-|An|)/(Cat+|An|)  =   0.00
                               Iterations  =   7
                                  Total H  = 1.110144e+02
                                  Total O  = 5.869065e+01

----------------------------Distribution of species----------------------------

                                               Log       Log       Log    mole V
   Species          Molality    Activity  Molality  Activity     Gamma   cm3/mol

   H+              9.605e-04   9.294e-04    -3.017    -3.032    -0.014      0.00
   OH-             1.350e-11   1.304e-11   -10.870   -10.885    -0.015     -3.27
   H2O             5.551e+01   9.729e-01     1.744    -0.012     0.000     17.88
C(4)          1.592e+00
   CO2             1.591e+00   1.591e+00     0.202     0.202     0.000     30.05
   HCO3-           9.605e-04   9.283e-04    -3.017    -3.032    -0.015     24.94
   CO3-2           7.074e-11   6.172e-11   -10.150   -10.210    -0.059     -3.16
H(0)          9.244e-18
   H2              4.622e-18   4.623e-18   -17.335   -17.335     0.000     28.50
O(0)          0.000e+00
   O2              0.000e+00   0.000e+00   -57.952   -57.952     0.000     30.07

------------------------------Saturation indices-------------------------------

	Phase               SI   log IAP   log K(298 K, 241 atm)

	CO2(g)            1.79      0.20   -1.59  CO2	 Pressure 241.1 atm, phi 0.256
	H2(g)           -14.11    -17.34   -3.22  H2
	H2O(g)           -1.44     -0.01    1.43  H2O
	O2(g)           -54.93    -57.95   -3.02  O2


------------------
End of simulation.
------------------

-------------------------------------
Reading input data for simulation 15.
-------------------------------------

		SOLUTION 1
	 temp 25
	 pH 3 charge
	C(4) 1 CO2(g)   2.4168e+00
	pressure   2.6110e+02
	END
-------------------------------------------
Beginning of initial solution calculations.
-------------------------------------------

Initial solution 1.	

-----------------------------Solution composition------------------------------

	Elements           Molality       Moles

	C(4)              1.611e+00   1.611e+00  Equilibrium with CO2(g)

----------------------------Description of solution----------------------------

                                       pH  =   3.025      Charge balance
                                       pe  =   4.000    
       Specific Conductance (uS/cm, 25 oC) = 376
                          Density (g/cm3)  =   1.02971
                               Volume (L)  =   1.11666
                        Activity of water  =   0.973
                           Ionic strength  =   9.756e-04
                       Mass of water (kg)  =   1.000e+00
                 Total alkalinity (eq/kg)  =  -1.118e-18
                       Total CO2 (mol/kg)  =   1.611e+00
                      Temperature (deg C)  =  25.00
                           Pressure (atm)  = 261.10
                  Electrical balance (eq)  =   1.118e-18
 Percent error, 100*(Cat-|An|)/(Cat+|An|)  =   0.00
                               Iterations  =   7
                                  Total H  = 1.110144e+02
                                  Total O  = 5.872857e+01

----------------------------Distribution of species----------------------------

                                               Log       Log       Log    mole V
   Species          Molality    Activity  Molality  Activity     Gamma   cm3/mol

   H+              9.756e-04   9.437e-04    -3.011    -3.025    -0.014      0.00
   OH-             1.351e-11   1.305e-11   -10.869   -10.884    -0.015     -3.21
   H2O             5.551e+01   9.726e-01     1.744    -0.012     0.000     17.86
C(4)          1.611e+00
   CO2             1.610e+00   1.610e+00     0.207     0.207     0.000     30.12
   HCO3-           9.756e-04   9.427e-04    -3.011    -3.026    -0.015     24.96
   CO3-2           7.232e-11   6.304e-11   -10.141   -10.200    -0.060     -2.98
H(0)          9.313e-18
   H2              4.657e-18   4.658e-18   -17.332   -17.332     0.000     28.49
O(0)          0.000e+00
   O2              0.000e+00   0.000e+00   -57.977   -57.977     0.000     30.04

------------------------------Saturation indices-------------------------------

	Phase               SI   log IAP   log K(298 K, 261 atm)

	CO2(g)            1.81      0.21   -1.60  CO2	 Pressure 261.1 atm, phi 0.246
	H2(g)           -14.10    -17.33   -3.23  H2
	H2O(g)           -1.43     -0.01    1.42  H2O
	O2(g)           -54.95    -57.98   -3.03  O2


------------------
End of simulation.
------------------

-------------------------------------
Reading input data for simulation 16.
-------------------------------------

		SOLUTION 1
	 temp 25
	 pH 3 charge
	C(4) 1 CO2(g)   2.4489e+00
	pressure   2.8110e+02
	END
-------------------------------------------
Beginning of initial solution calculations.
-------------------------------------------

Initial solution 1.	

-----------------------------Solution composition------------------------------

	Elements           Molality       Moles

	C(4)              1.629e+00   1.629e+00  Equilibrium with CO2(g)

----------------------------Description of solution----------------------------

                                       pH  =   3.019      Charge balance
                                       pe  =   4.000    
       Specific Conductance (uS/cm, 25 oC) = 382
                          Density (g/cm3)  =   1.03067
                               Volume (L)  =   1.11727
                        Activity of water  =   0.972
                           Ionic strength  =   9.906e-04
                       Mass of water (kg)  =   1.000e+00
                 Total alkalinity (eq/kg)  =   1.232e-18
                       Total CO2 (mol/kg)  =   1.629e+00
                      Temperature (deg C)  =  25.00
                           Pressure (atm)  = 281.10
                  Electrical balance (eq)  =  -1.232e-18
 Percent error, 100*(Cat-|An|)/(Cat+|An|)  =  -0.00
                               Iterations  =   7
                                  Total H  = 1.110144e+02
                                  Total O  = 5.876506e+01

----------------------------Distribution of species----------------------------

                                               Log       Log       Log    mole V
   Species          Molality    Activity  Molality  Activity     Gamma   cm3/mol

   H+              9.906e-04   9.581e-04    -3.004    -3.019    -0.014      0.00
   OH-             1.353e-11   1.306e-11   -10.869   -10.884    -0.015     -3.14
   H2O             5.551e+01   9.723e-01     1.744    -0.012     0.000     17.85
C(4)          1.629e+00
   CO2             1.628e+00   1.628e+00     0.212     0.212     0.000     30.19
   HCO3-           9.906e-04   9.570e-04    -3.004    -3.019    -0.015     24.98
   CO3-2           7.392e-11   6.438e-11   -10.131   -10.191    -0.060     -2.80
H(0)          9.379e-18
   H2              4.689e-18   4.690e-18   -17.329   -17.329     0.000     28.48
O(0)          0.000e+00
   O2              0.000e+00   0.000e+00   -58.002   -58.002     0.000     30.02

------------------------------Saturation indices-------------------------------

	Phase               SI   log IAP   log K(298 K, 281 atm)

	CO2(g)            1.82      0.21   -1.61  CO2	 Pressure 281.1 atm, phi 0.237
	H2(g)           -14.09    -17.33   -3.24  H2
	H2O(g)           -1.43     -0.01    1.41  H2O
	O2(g)           -54.96    -58.00   -3.04  O2


------------------
End of simulation.
------------------

-------------------------------------
Reading input data for simulation 17.
-------------------------------------

		SOLUTION 1
	 temp 25
	 pH 3 charge
	C(4) 1 CO2(g)   2.4787e+00
	pressure   3.0110e+02
	END
-------------------------------------------
Beginning of initial solution calculations.
-------------------------------------------

Initial solution 1.	

-----------------------------Solution composition------------------------------

	Elements           Molality       Moles

	C(4)              1.646e+00   1.646e+00  Equilibrium with CO2(g)

----------------------------Description of solution----------------------------

                                       pH  =   3.012      Charge balance
                                       pe  =   4.000    
       Specific Conductance (uS/cm, 25 oC) = 388
                          Density (g/cm3)  =   1.03161
                               Volume (L)  =   1.11781
                        Activity of water  =   0.972
                           Ionic strength  =   1.006e-03
                       Mass of water (kg)  =   1.000e+00
                 Total alkalinity (eq/kg)  =  -4.967e-18
                       Total CO2 (mol/kg)  =   1.646e+00
                      Temperature (deg C)  =  25.00
                           Pressure (atm)  = 301.10
                  Electrical balance (eq)  =   4.967e-18
 Percent error, 100*(Cat-|An|)/(Cat+|An|)  =   0.00
                               Iterations  =   7
                                  Total H  = 1.110144e+02
                                  Total O  = 5.879967e+01

----------------------------Distribution of species----------------------------

                                               Log       Log       Log    mole V
   Species          Molality    Activity  Molality  Activity     Gamma   cm3/mol

   H+              1.006e-03   9.724e-04    -2.998    -3.012    -0.015      0.00
   OH-             1.355e-11   1.308e-11   -10.868   -10.884    -0.015     -3.08
   H2O             5.551e+01   9.720e-01     1.744    -0.012     0.000     17.83
C(4)          1.646e+00
   CO2             1.645e+00   1.646e+00     0.216     0.216     0.000     30.26
   HCO3-           1.006e-03   9.712e-04    -2.998    -3.013    -0.015     25.00
   CO3-2           7.553e-11   6.573e-11   -10.122   -10.182    -0.060     -2.62
H(0)          9.439e-18
   H2              4.719e-18   4.721e-18   -17.326   -17.326     0.000     28.47
O(0)          0.000e+00
   O2              0.000e+00   0.000e+00   -58.026   -58.026     0.000     29.99

------------------------------Saturation indices-------------------------------

	Phase               SI   log IAP   log K(298 K, 301 atm)

	CO2(g)            1.84      0.22   -1.62  CO2	 Pressure 301.1 atm, phi 0.229
	H2(g)           -14.07    -17.33   -3.25  H2
	H2O(g)           -1.42     -0.01    1.41  H2O
	O2(g)           -54.97    -58.03   -3.05  O2


------------------
End of simulation.
------------------

-------------------------------------
Reading input data for simulation 18.
-------------------------------------

		SOLUTION 1
	 temp 25
	 pH 3 charge
	C(4) 1 CO2(g)   2.5066e+00
	pressure   3.2110e+02
	END
-------------------------------------------
Beginning of initial solution calculations.
-------------------------------------------

Initial solution 1.	

-----------------------------Solution composition------------------------------

	Elements           Molality       Moles

	C(4)              1.663e+00   1.663e+00  Equilibrium with CO2(g)

----------------------------Description of solution----------------------------

                                       pH  =   3.006      Charge balance
                                       pe  =   4.000    
       Specific Conductance (uS/cm, 25 oC) = 393
                          Density (g/cm3)  =   1.03254
                               Volume (L)  =   1.11831
                        Activity of water  =   0.972
                           Ionic strength  =   1.021e-03
                       Mass of water (kg)  =   1.000e+00
                 Total alkalinity (eq/kg)  =  -3.414e-18
                       Total CO2 (mol/kg)  =   1.663e+00
                      Temperature (deg C)  =  25.00
                           Pressure (atm)  = 321.10
                  Electrical balance (eq)  =   3.414e-18
 Percent error, 100*(Cat-|An|)/(Cat+|An|)  =   0.00
                               Iterations  =   7
                                  Total H  = 1.110145e+02
                                  Total O  = 5.883293e+01

----------------------------Distribution of species----------------------------

                                               Log       Log       Log    mole V
   Species          Molality    Activity  Molality  Activity     Gamma   cm3/mol

   H+              1.021e-03   9.866e-04    -2.991    -3.006    -0.015      0.00
   OH-             1.357e-11   1.309e-11   -10.868   -10.883    -0.015     -3.02
   H2O             5.551e+01   9.717e-01     1.744    -0.012     0.000     17.82
C(4)          1.663e+00
   CO2             1.662e+00   1.662e+00     0.221     0.221     0.000     30.33
   HCO3-           1.021e-03   9.855e-04    -2.991    -3.006    -0.015     25.02
   CO3-2           7.716e-11   6.709e-11   -10.113   -10.173    -0.061     -2.45
H(0)          9.495e-18
   H2              4.748e-18   4.749e-18   -17.324   -17.323     0.000     28.47
O(0)          0.000e+00
   O2              0.000e+00   0.000e+00   -58.049   -58.049     0.000     29.97

------------------------------Saturation indices-------------------------------

	Phase               SI   log IAP   log K(298 K, 321 atm)

	CO2(g)            1.85      0.22   -1.63  CO2	 Pressure 321.1 atm, phi 0.223
	H2(g)           -14.06    -17.32   -3.26  H2
	H2O(g)           -1.41     -0.01    1.40  H2O
	O2(g)           -54.99    -58.05   -3.06  O2


------------------
End of simulation.
------------------

-------------------------------------
Reading input data for simulation 19.
-------------------------------------

		SOLUTION 1
	 temp 25
	 pH 3 charge
	C(4) 1 CO2(g)   2.5329e+00
	pressure   3.4110e+02
	END
-------------------------------------------
Beginning of initial solution calculations.
-------------------------------------------

Initial solution 1.	

-----------------------------Solution composition------------------------------

	Elements           Molality       Moles

	C(4)              1.679e+00   1.679e+00  Equilibrium with CO2(g)

----------------------------Description of solution----------------------------

                                       pH  =   3.000      Charge balance
                                       pe  =   4.000    
       Specific Conductance (uS/cm, 25 oC) = 399
                          Density (g/cm3)  =   1.03346
                               Volume (L)  =   1.11877
                        Activity of water  =   0.971
                           Ionic strength  =   1.036e-03
                       Mass of water (kg)  =   1.000e+00
                 Total alkalinity (eq/kg)  =  -4.039e-18
                       Total CO2 (mol/kg)  =   1.679e+00
                      Temperature (deg C)  =  25.00
                           Pressure (atm)  = 341.10
                  Electrical balance (eq)  =   4.039e-18
 Percent error, 100*(Cat-|An|)/(Cat+|An|)  =   0.00
                               Iterations  =   7
                                  Total H  = 1.110145e+02
                                  Total O  = 5.886525e+01

----------------------------Distribution of species----------------------------

                                               Log       Log       Log    mole V
   Species          Molality    Activity  Molality  Activity     Gamma   cm3/mol

   H+              1.036e-03   1.001e-03    -2.985    -3.000    -0.015      0.00
   OH-             1.359e-11   1.311e-11   -10.867   -10.882    -0.016     -2.96
   H2O             5.551e+01   9.714e-01     1.744    -0.013     0.000     17.80
C(4)          1.679e+00
   CO2             1.678e+00   1.678e+00     0.225     0.225     0.000     30.40
   HCO3-           1.036e-03   9.997e-04    -2.985    -3.000    -0.015     25.03
   CO3-2           7.881e-11   6.846e-11   -10.103   -10.165    -0.061     -2.27
H(0)          9.549e-18
   H2              4.774e-18   4.776e-18   -17.321   -17.321     0.000     28.46
O(0)          0.000e+00
   O2              0.000e+00   0.000e+00   -58.073   -58.073     0.000     29.94

------------------------------Saturation indices-------------------------------

	Phase               SI   log IAP   log K(298 K, 341 atm)

	CO2(g)            1.87      0.22   -1.64  CO2	 Pressure 341.1 atm, phi 0.217
	H2(g)           -14.05    -17.32   -3.27  H2
	H2O(g)           -1.41     -0.01    1.40  H2O
	O2(g)           -55.00    -58.07   -3.07  O2


------------------
End of simulation.
------------------

-------------------------------------
Reading input data for simulation 20.
-------------------------------------

		SOLUTION 1
	 temp 25
	 pH 3 charge
	C(4) 1 CO2(g)   2.5576e+00
	pressure   3.6110e+02
	END
-------------------------------------------
Beginning of initial solution calculations.
-------------------------------------------

Initial solution 1.	

-----------------------------Solution composition------------------------------

	Elements           Molality       Moles

	C(4)              1.694e+00   1.694e+00  Equilibrium with CO2(g)

----------------------------Description of solution----------------------------

                                       pH  =   2.993      Charge balance
                                       pe  =   4.000    
       Specific Conductance (uS/cm, 25 oC) = 405
                          Density (g/cm3)  =   1.03436
                               Volume (L)  =   1.11917
                        Activity of water  =   0.971
                           Ionic strength  =   1.050e-03
                       Mass of water (kg)  =   1.000e+00
                 Total alkalinity (eq/kg)  =  -7.140e-18
                       Total CO2 (mol/kg)  =   1.694e+00
                      Temperature (deg C)  =  25.00
                           Pressure (atm)  = 361.10
                  Electrical balance (eq)  =   7.140e-18
 Percent error, 100*(Cat-|An|)/(Cat+|An|)  =   0.00
                               Iterations  =   7
                                  Total H  = 1.110145e+02
                                  Total O  = 5.889582e+01

----------------------------Distribution of species----------------------------

                                               Log       Log       Log    mole V
   Species          Molality    Activity  Molality  Activity     Gamma   cm3/mol

   H+              1.050e-03   1.015e-03    -2.979    -2.993    -0.015      0.00
   OH-             1.361e-11   1.313e-11   -10.866   -10.882    -0.016     -2.90
   H2O             5.551e+01   9.712e-01     1.744    -0.013     0.000     17.79
C(4)          1.694e+00
   CO2             1.693e+00   1.694e+00     0.229     0.229     0.000     30.47
   HCO3-           1.050e-03   1.014e-03    -2.979    -2.994    -0.015     25.05
   CO3-2           8.047e-11   6.985e-11   -10.094   -10.156    -0.061     -2.10
H(0)          9.598e-18
   H2              4.799e-18   4.800e-18   -17.319   -17.319     0.000     28.45
O(0)          0.000e+00
   O2              0.000e+00   0.000e+00   -58.096   -58.095     0.000     29.92

------------------------------Saturation indices-------------------------------

	Phase               SI   log IAP   log K(298 K, 361 atm)

	CO2(g)            1.88      0.23   -1.66  CO2	 Pressure 361.1 atm, phi 0.212
	H2(g)           -14.04    -17.32   -3.28  H2
	H2O(g)           -1.40     -0.01    1.39  H2O
	O2(g)           -55.01    -58.10   -3.08  O2


------------------
End of simulation.
------------------

-------------------------------------
Reading input data for simulation 21.
-------------------------------------

		SOLUTION 1
	 temp 25
	 pH 3 charge
	C(4) 1 CO2(g)   2.5810e+00
	pressure   3.8110e+02
	END
-------------------------------------------
Beginning of initial solution calculations.
-------------------------------------------

Initial solution 1.	

-----------------------------Solution composition------------------------------

	Elements           Molality       Moles

	C(4)              1.709e+00   1.709e+00  Equilibrium with CO2(g)

----------------------------Description of solution----------------------------

                                       pH  =   2.987      Charge balance
                                       pe  =   4.000    
       Specific Conductance (uS/cm, 25 oC) = 411
                          Density (g/cm3)  =   1.03525
                               Volume (L)  =   1.11953
                        Activity of water  =   0.971
                           Ionic strength  =   1.065e-03
                       Mass of water (kg)  =   1.000e+00
                 Total alkalinity (eq/kg)  =  -6.997e-18
                       Total CO2 (mol/kg)  =   1.709e+00
                      Temperature (deg C)  =  25.00
                           Pressure (atm)  = 381.10
                  Electrical balance (eq)  =   6.997e-18
 Percent error, 100*(Cat-|An|)/(Cat+|An|)  =   0.00
                               Iterations  =   7
                                  Total H  = 1.110146e+02
                                  Total O  = 5.892534e+01

----------------------------Distribution of species----------------------------

                                               Log       Log       Log    mole V
   Species          Molality    Activity  Molality  Activity     Gamma   cm3/mol

   H+              1.065e-03   1.029e-03    -2.972    -2.987    -0.015      0.00
   OH-             1.363e-11   1.315e-11   -10.865   -10.881    -0.016     -2.84
   H2O             5.551e+01   9.709e-01     1.744    -0.013     0.000     17.77
C(4)          1.709e+00
   CO2             1.708e+00   1.708e+00     0.232     0.233     0.000     30.53
   HCO3-           1.065e-03   1.028e-03    -2.972    -2.988    -0.015     25.07
   CO3-2           8.214e-11   7.124e-11   -10.085   -10.147    -0.062     -1.93
H(0)          9.644e-18
   H2              4.822e-18   4.823e-18   -17.317   -17.317     0.000     28.44
O(0)          0.000e+00
   O2              0.000e+00   0.000e+00   -58.118   -58.118     0.000     29.90

------------------------------Saturation indices-------------------------------

	Phase               SI   log IAP   log K(298 K, 381 atm)

	CO2(g)            1.90      0.23   -1.67  CO2	 Pressure 381.1 atm, phi 0.208
	H2(g)           -14.02    -17.32   -3.29  H2
	H2O(g)           -1.40     -0.01    1.38  H2O
	O2(g)           -55.02    -58.12   -3.09  O2


------------------
End of simulation.
------------------

-------------------------------------
Reading input data for simulation 22.
-------------------------------------

		SOLUTION 1
	 temp 25
	 pH 3 charge
	C(4) 1 CO2(g)   2.6033e+00
	pressure   4.0110e+02
	END
-------------------------------------------
Beginning of initial solution calculations.
-------------------------------------------

Initial solution 1.	

-----------------------------Solution composition------------------------------

	Elements           Molality       Moles

	C(4)              1.723e+00   1.723e+00  Equilibrium with CO2(g)

----------------------------Description of solution----------------------------

                                       pH  =   2.981      Charge balance
                                       pe  =   4.000    
       Specific Conductance (uS/cm, 25 oC) = 416
                          Density (g/cm3)  =   1.03613
                               Volume (L)  =   1.11987
                        Activity of water  =   0.971
                           Ionic strength  =   1.081e-03
                       Mass of water (kg)  =   1.000e+00
                 Total alkalinity (eq/kg)  =  -7.897e-18
                       Total CO2 (mol/kg)  =   1.723e+00
                      Temperature (deg C)  =  25.00
                           Pressure (atm)  = 401.10
                  Electrical balance (eq)  =   7.897e-18
 Percent error, 100*(Cat-|An|)/(Cat+|An|)  =   0.00
                               Iterations  =   7
                                  Total H  = 1.110146e+02
                                  Total O  = 5.895424e+01

----------------------------Distribution of species----------------------------

                                               Log       Log       Log    mole V
   Species          Molality    Activity  Molality  Activity     Gamma   cm3/mol

   H+              1.081e-03   1.044e-03    -2.966    -2.981    -0.015      0.00
   OH-             1.366e-11   1.317e-11   -10.865   -10.880    -0.016     -2.78
   H2O             5.551e+01   9.707e-01     1.744    -0.013     0.000     17.76
C(4)          1.723e+00
   CO2             1.722e+00   1.723e+00     0.236     0.236     0.000     30.60
   HCO3-           1.081e-03   1.043e-03    -2.966    -2.982    -0.016     25.09
   CO3-2           8.384e-11   7.265e-11   -10.077   -10.139    -0.062     -1.76
H(0)          9.688e-18
   H2              4.844e-18   4.845e-18   -17.315   -17.315     0.000     28.44
O(0)          0.000e+00
   O2              0.000e+00   0.000e+00   -58.140   -58.140     0.000     29.87

------------------------------Saturation indices-------------------------------

	Phase               SI   log IAP   log K(298 K, 401 atm)

	CO2(g)            1.91      0.24   -1.68  CO2	 Pressure 401.1 atm, phi 0.205
	H2(g)           -14.01    -17.31   -3.30  H2
	H2O(g)           -1.39     -0.01    1.38  H2O
	O2(g)           -55.04    -58.14   -3.10  O2


------------------
End of simulation.
------------------

-------------------------------------
Reading input data for simulation 23.
-------------------------------------

		SOLUTION 1
	 temp 25
	 pH 3 charge
	C(4) 1 CO2(g)   2.6244e+00
	pressure   4.2110e+02
	END
-------------------------------------------
Beginning of initial solution calculations.
-------------------------------------------

Initial solution 1.	

-----------------------------Solution composition------------------------------

	Elements           Molality       Moles

	C(4)              1.737e+00   1.737e+00  Equilibrium with CO2(g)

----------------------------Description of solution----------------------------

                                       pH  =   2.975      Charge balance
                                       pe  =   4.000    
       Specific Conductance (uS/cm, 25 oC) = 422
                          Density (g/cm3)  =   1.03700
                               Volume (L)  =   1.12015
                        Activity of water  =   0.970
                           Ionic strength  =   1.096e-03
                       Mass of water (kg)  =   1.000e+00
                 Total alkalinity (eq/kg)  =  -1.132e-17
                       Total CO2 (mol/kg)  =   1.737e+00
                      Temperature (deg C)  =  25.00
                           Pressure (atm)  = 421.10
                  Electrical balance (eq)  =   1.132e-17
 Percent error, 100*(Cat-|An|)/(Cat+|An|)  =   0.00
                               Iterations  =   7
                                  Total H  = 1.110146e+02
                                  Total O  = 5.898140e+01

----------------------------Distribution of species----------------------------

                                               Log       Log       Log    mole V
   Species          Molality    Activity  Molality  Activity     Gamma   cm3/mol

   H+              1.096e-03   1.058e-03    -2.960    -2.975    -0.015      0.00
   OH-             1.368e-11   1.319e-11   -10.864   -10.880    -0.016     -2.72
   H2O             5.551e+01   9.705e-01     1.744    -0.013     0.000     17.74
C(4)          1.737e+00
   CO2             1.736e+00   1.736e+00     0.240     0.240     0.000     30.66
   HCO3-           1.096e-03   1.057e-03    -2.960    -2.976    -0.016     25.10
   CO3-2           8.554e-11   7.407e-11   -10.068   -10.130    -0.063     -1.59
H(0)          9.727e-18
   H2              4.864e-18   4.865e-18   -17.313   -17.313     0.000     28.43
O(0)          0.000e+00
   O2              0.000e+00   0.000e+00   -58.162   -58.162     0.000     29.85

------------------------------Saturation indices-------------------------------

	Phase               SI   log IAP   log K(298 K, 421 atm)

	CO2(g)            1.93      0.24   -1.69  CO2	 Pressure 421.1 atm, phi 0.202
	H2(g)           -14.00    -17.31   -3.31  H2
	H2O(g)           -1.38     -0.01    1.37  H2O
	O2(g)           -55.05    -58.16   -3.11  O2


------------------
End of simulation.
------------------

-------------------------------------
Reading input data for simulation 24.
-------------------------------------

		SOLUTION 1
	 temp 25
	 pH 3 charge
	C(4) 1 CO2(g)   2.6445e+00
	pressure   4.4110e+02
	END
-------------------------------------------
Beginning of initial solution calculations.
-------------------------------------------

Initial solution 1.	

-----------------------------Solution composition------------------------------

	Elements           Molality       Moles

	C(4)              1.750e+00   1.750e+00  Equilibrium with CO2(g)

----------------------------Description of solution----------------------------

                                       pH  =   2.970      Charge balance
                                       pe  =   4.000    
       Specific Conductance (uS/cm, 25 oC) = 428
                          Density (g/cm3)  =   1.03786
                               Volume (L)  =   1.12039
                        Activity of water  =   0.970
                           Ionic strength  =   1.111e-03
                       Mass of water (kg)  =   1.000e+00
                 Total alkalinity (eq/kg)  =  -8.531e-18
                       Total CO2 (mol/kg)  =   1.750e+00
                      Temperature (deg C)  =  25.00
                           Pressure (atm)  = 441.10
                  Electrical balance (eq)  =   8.531e-18
 Percent error, 100*(Cat-|An|)/(Cat+|An|)  =   0.00
                               Iterations  =   7
                                  Total H  = 1.110147e+02
                                  Total O  = 5.900738e+01

----------------------------Distribution of species----------------------------

                                               Log       Log       Log    mole V
   Species          Molality    Activity  Molality  Activity     Gamma   cm3/mol

   H+              1.111e-03   1.072e-03    -2.954    -2.970    -0.015      0.00
   OH-             1.371e-11   1.321e-11   -10.863   -10.879    -0.016     -2.66
   H2O             5.551e+01   9.702e-01     1.744    -0.013     0.000     17.73
C(4)          1.750e+00
   CO2             1.749e+00   1.749e+00     0.243     0.243     0.000     30.73
   HCO3-           1.111e-03   1.071e-03    -2.954    -2.970    -0.016     25.12
   CO3-2           8.727e-11   7.550e-11   -10.059   -10.122    -0.063     -1.43
H(0)          9.764e-18
   H2              4.882e-18   4.883e-18   -17.311   -17.311     0.000     28.42
O(0)          0.000e+00
   O2              0.000e+00   0.000e+00   -58.184   -58.184     0.000     29.83

------------------------------Saturation indices-------------------------------

	Phase               SI   log IAP   log K(298 K, 441 atm)

	CO2(g)            1.94      0.24   -1.70  CO2	 Pressure 441.1 atm, phi 0.199
	H2(g)           -13.99    -17.31   -3.32  H2
	H2O(g)           -1.38     -0.01    1.36  H2O
	O2(g)           -55.06    -58.18   -3.13  O2


------------------
End of simulation.
------------------

-------------------------------------
Reading input data for simulation 25.
-------------------------------------

		SOLUTION 1
	 temp 25
	 pH 3 charge
	C(4) 1 CO2(g)   2.6638e+00
	pressure   4.6110e+02
	END
-------------------------------------------
Beginning of initial solution calculations.
-------------------------------------------

Initial solution 1.	

-----------------------------Solution composition------------------------------

	Elements           Molality       Moles

	C(4)              1.763e+00   1.763e+00  Equilibrium with CO2(g)

----------------------------Description of solution----------------------------

                                       pH  =   2.964      Charge balance
                                       pe  =   4.000    
       Specific Conductance (uS/cm, 25 oC) = 434
                          Density (g/cm3)  =   1.03870
                               Volume (L)  =   1.12062
                        Activity of water  =   0.970
                           Ionic strength  =   1.126e-03
                       Mass of water (kg)  =   1.000e+00
                 Total alkalinity (eq/kg)  =  -9.155e-18
                       Total CO2 (mol/kg)  =   1.763e+00
                      Temperature (deg C)  =  25.00
                           Pressure (atm)  = 461.10
                  Electrical balance (eq)  =   9.155e-18
 Percent error, 100*(Cat-|An|)/(Cat+|An|)  =   0.00
                               Iterations  =   7
                                  Total H  = 1.110147e+02
                                  Total O  = 5.903289e+01

----------------------------Distribution of species----------------------------

                                               Log       Log       Log    mole V
   Species          Molality    Activity  Molality  Activity     Gamma   cm3/mol

   H+              1.126e-03   1.087e-03    -2.949    -2.964    -0.015      0.00
   OH-             1.374e-11   1.324e-11   -10.862   -10.878    -0.016     -2.60
   H2O             5.551e+01   9.700e-01     1.744    -0.013     0.000     17.71
C(4)          1.763e+00
   CO2             1.762e+00   1.762e+00     0.246     0.246     0.000     30.79
   HCO3-           1.126e-03   1.085e-03    -2.949    -2.964    -0.016     25.14
   CO3-2           8.900e-11   7.695e-11   -10.051   -10.114    -0.063     -1.26
H(0)          9.799e-18
   H2              4.900e-18   4.901e-18   -17.310   -17.310     0.000     28.42
O(0)          0.000e+00
   O2              0.000e+00   0.000e+00   -58.205   -58.205     0.000     29.81

------------------------------Saturation indices-------------------------------

	Phase               SI   log IAP   log K(298 K, 461 atm)

	CO2(g)            1.96      0.25   -1.71  CO2	 Pressure 461.1 atm, phi 0.197
	H2(g)           -13.98    -17.31   -3.33  H2
	H2O(g)           -1.37     -0.01    1.36  H2O
	O2(g)           -55.07    -58.21   -3.14  O2


------------------
End of simulation.
------------------

-------------------------------------
Reading input data for simulation 26.
-------------------------------------

		SOLUTION 1
	 temp 25
	 pH 3 charge
	C(4) 1 CO2(g)   2.6822e+00
	pressure   4.8110e+02
	END
-------------------------------------------
Beginning of initial solution calculations.
-------------------------------------------

Initial solution 1.	

-----------------------------Solution composition------------------------------

	Elements           Molality       Moles

	C(4)              1.775e+00   1.775e+00  Equilibrium with CO2(g)

----------------------------Description of solution----------------------------

                                       pH  =   2.958      Charge balance
                                       pe  =   4.000    
       Specific Conductance (uS/cm, 25 oC) = 439
                          Density (g/cm3)  =   1.03954
                               Volume (L)  =   1.12079
                        Activity of water  =   0.970
                           Ionic strength  =   1.141e-03
                       Mass of water (kg)  =   1.000e+00
                 Total alkalinity (eq/kg)  =  -1.282e-17
                       Total CO2 (mol/kg)  =   1.775e+00
                      Temperature (deg C)  =  25.00
                           Pressure (atm)  = 481.10
                  Electrical balance (eq)  =   1.282e-17
 Percent error, 100*(Cat-|An|)/(Cat+|An|)  =   0.00
                               Iterations  =   7
                                  Total H  = 1.110147e+02
                                  Total O  = 5.905690e+01

----------------------------Distribution of species----------------------------

                                               Log       Log       Log    mole V
   Species          Molality    Activity  Molality  Activity     Gamma   cm3/mol

   H+              1.141e-03   1.101e-03    -2.943    -2.958    -0.015      0.00
   OH-             1.377e-11   1.326e-11   -10.861   -10.877    -0.016     -2.55
   H2O             5.551e+01   9.698e-01     1.744    -0.013     0.000     17.70
C(4)          1.775e+00
   CO2             1.774e+00   1.774e+00     0.249     0.249     0.000     30.85
   HCO3-           1.141e-03   1.100e-03    -2.943    -2.959    -0.016     25.16
   CO3-2           9.076e-11   7.840e-11   -10.042   -10.106    -0.064     -1.10
H(0)          9.830e-18
   H2              4.915e-18   4.916e-18   -17.308   -17.308     0.000     28.41
O(0)          0.000e+00
   O2              0.000e+00   0.000e+00   -58.226   -58.226     0.000     29.78

------------------------------Saturation indices-------------------------------

	Phase               SI   log IAP   log K(298 K, 481 atm)

	CO2(g)            1.97      0.25   -1.72  CO2	 Pressure 481.1 atm, phi 0.195
	H2(g)           -13.97    -17.31   -3.34  H2
	H2O(g)           -1.37     -0.01    1.35  H2O
	O2(g)           -55.08    -58.23   -3.15  O2


------------------
End of simulation.
------------------

-------------------------------------
Reading input data for simulation 27.
-------------------------------------

		SOLUTION 1
	 temp 25
	 pH 3 charge
	C(4) 1 CO2(g)   2.6999e+00
	pressure   5.0110e+02
	END
-------------------------------------------
Beginning of initial solution calculations.
-------------------------------------------

Initial solution 1.	

-----------------------------Solution composition------------------------------

	Elements           Molality       Moles

	C(4)              1.786e+00   1.786e+00  Equilibrium with CO2(g)

----------------------------Description of solution----------------------------

                                       pH  =   2.952      Charge balance
                                       pe  =   4.000    
       Specific Conductance (uS/cm, 25 oC) = 445
                          Density (g/cm3)  =   1.04037
                               Volume (L)  =   1.12094
                        Activity of water  =   0.970
                           Ionic strength  =   1.156e-03
                       Mass of water (kg)  =   1.000e+00
                 Total alkalinity (eq/kg)  =  -1.316e-17
                       Total CO2 (mol/kg)  =   1.786e+00
                      Temperature (deg C)  =  25.00
                           Pressure (atm)  = 501.10
                  Electrical balance (eq)  =   1.316e-17
 Percent error, 100*(Cat-|An|)/(Cat+|An|)  =   0.00
                               Iterations  =   7
                                  Total H  = 1.110147e+02
                                  Total O  = 5.908029e+01

----------------------------Distribution of species----------------------------

                                               Log       Log       Log    mole V
   Species          Molality    Activity  Molality  Activity     Gamma   cm3/mol

   H+              1.156e-03   1.116e-03    -2.937    -2.952    -0.015      0.00
   OH-             1.379e-11   1.329e-11   -10.860   -10.877    -0.016     -2.49
   H2O             5.551e+01   9.696e-01     1.744    -0.013     0.000     17.68
C(4)          1.786e+00
   CO2             1.785e+00   1.786e+00     0.252     0.252     0.000     30.91
[...]
                      Temperature (deg C)  = 100.00
                           Pressure (atm)  = 381.10
                  Electrical balance (eq)  =   2.977e-18
 Percent error, 100*(Cat-|An|)/(Cat+|An|)  =   0.00
                               Iterations  =   7
                                  Total H  = 1.110141e+02
                                  Total O  = 5.843277e+01

----------------------------Distribution of species----------------------------

                                               Log       Log       Log    mole V
   Species          Molality    Activity  Molality  Activity     Gamma   cm3/mol

   H+              8.540e-04   8.237e-04    -3.069    -3.084    -0.016      0.00
   OH-             9.791e-10   9.426e-10    -9.009    -9.026    -0.017     -7.39
   H2O             5.551e+01   9.751e-01     1.744    -0.011     0.000     18.47
C(4)          1.463e+00
   CO2             1.462e+00   1.462e+00     0.165     0.165     0.000     26.45
   HCO3-           8.540e-04   8.227e-04    -3.069    -3.085    -0.016     25.70
   CO3-2           1.284e-10   1.106e-10    -9.891    -9.956    -0.065    -11.30
H(0)          3.717e-18
   H2              1.859e-18   1.859e-18   -17.731   -17.731     0.000     28.41
O(0)          2.607e-38
   O2              1.303e-38   1.304e-38   -37.885   -37.885     0.000     32.77

------------------------------Saturation indices-------------------------------

	Phase               SI   log IAP   log K(373 K, 381 atm)

	CO2(g)            2.27      0.17   -2.10  CO2	 Pressure 381.1 atm, phi 0.486
	H2(g)           -14.48    -17.73   -3.25  H2
	H2O(g)            0.08     -0.01   -0.09  H2O
	O2(g)           -34.59    -37.88   -3.29  O2


------------------
End of simulation.
------------------

--------------------------------------
Reading input data for simulation 106.
--------------------------------------

		SOLUTION 1
	 temp 100
	 pH 3 charge
	C(4) 1 CO2(g)   2.6033e+00
	pressure   4.0110e+02
	END
-------------------------------------------
Beginning of initial solution calculations.
-------------------------------------------

Initial solution 1.	

-----------------------------Solution composition------------------------------

	Elements           Molality       Moles

	C(4)              1.489e+00   1.489e+00  Equilibrium with CO2(g)

----------------------------Description of solution----------------------------

                                       pH  =   3.077      Charge balance
                                       pe  =   4.000    
       Specific Conductance (uS/cm, 100 oC) = 1055
                          Density (g/cm3)  =   1.00155
                               Volume (L)  =   1.13674
                        Activity of water  =   0.975
                           Ionic strength  =   8.681e-04
                       Mass of water (kg)  =   1.000e+00
                 Total alkalinity (eq/kg)  =  -5.270e-18
                       Total CO2 (mol/kg)  =   1.489e+00
                      Temperature (deg C)  = 100.00
                           Pressure (atm)  = 401.10
                  Electrical balance (eq)  =   5.270e-18
 Percent error, 100*(Cat-|An|)/(Cat+|An|)  =   0.00
                               Iterations  =   7
                                  Total H  = 1.110142e+02
                                  Total O  = 5.848484e+01

----------------------------Distribution of species----------------------------

                                               Log       Log       Log    mole V
   Species          Molality    Activity  Molality  Activity     Gamma   cm3/mol

   H+              8.681e-04   8.371e-04    -3.061    -3.077    -0.016      0.00
   OH-             9.803e-10   9.435e-10    -9.009    -9.025    -0.017     -7.45
   H2O             5.551e+01   9.747e-01     1.744    -0.011     0.000     18.45
C(4)          1.489e+00
   CO2             1.488e+00   1.488e+00     0.173     0.173     0.000     26.70
   HCO3-           8.681e-04   8.361e-04    -3.061    -3.078    -0.016     25.75
   CO3-2           1.313e-10   1.130e-10    -9.882    -9.947    -0.065    -11.03
H(0)          3.769e-18
   H2              1.885e-18   1.885e-18   -17.725   -17.725     0.000     28.40
O(0)          2.449e-38
   O2              1.224e-38   1.225e-38   -37.912   -37.912     0.000     32.72

------------------------------Saturation indices-------------------------------

	Phase               SI   log IAP   log K(373 K, 401 atm)

	CO2(g)            2.28      0.17   -2.11  CO2	 Pressure 401.1 atm, phi 0.480
	H2(g)           -14.46    -17.72   -3.26  H2
	H2O(g)            0.09     -0.01   -0.10  H2O
	O2(g)           -34.61    -37.91   -3.30  O2


------------------
End of simulation.
------------------

--------------------------------------
Reading input data for simulation 107.
--------------------------------------

		SOLUTION 1
	 temp 100
	 pH 3 charge
	C(4) 1 CO2(g)   2.6244e+00
	pressure   4.2110e+02
	END
-------------------------------------------
Beginning of initial solution calculations.
-------------------------------------------

Initial solution 1.	

-----------------------------Solution composition------------------------------

	Elements           Molality       Moles

	C(4)              1.513e+00   1.513e+00  Equilibrium with CO2(g)

----------------------------Description of solution----------------------------

                                       pH  =   3.070      Charge balance
                                       pe  =   4.000    
       Specific Conductance (uS/cm, 100 oC) = 1071
                          Density (g/cm3)  =   1.00243
                               Volume (L)  =   1.13802
                        Activity of water  =   0.974
                           Ionic strength  =   8.819e-04
                       Mass of water (kg)  =   1.000e+00
                 Total alkalinity (eq/kg)  =  -3.376e-18
                       Total CO2 (mol/kg)  =   1.513e+00
                      Temperature (deg C)  = 100.00
                           Pressure (atm)  = 421.10
                  Electrical balance (eq)  =   3.376e-18
 Percent error, 100*(Cat-|An|)/(Cat+|An|)  =   0.00
                               Iterations  =   7
                                  Total H  = 1.110142e+02
                                  Total O  = 5.853362e+01

----------------------------Distribution of species----------------------------

                                               Log       Log       Log    mole V
   Species          Molality    Activity  Molality  Activity     Gamma   cm3/mol

   H+              8.819e-04   8.503e-04    -3.055    -3.070    -0.016      0.00
   OH-             9.821e-10   9.450e-10    -9.008    -9.025    -0.017     -7.52
   H2O             5.551e+01   9.743e-01     1.744    -0.011     0.000     18.43
C(4)          1.513e+00
   CO2             1.512e+00   1.513e+00     0.180     0.180     0.000     26.96
   HCO3-           8.819e-04   8.492e-04    -3.055    -3.071    -0.016     25.79
   CO3-2           1.342e-10   1.153e-10    -9.872    -9.938    -0.066    -10.75
H(0)          3.817e-18
   H2              1.909e-18   1.909e-18   -17.719   -17.719     0.000     28.39
O(0)          2.306e-38
   O2              1.153e-38   1.153e-38   -37.938   -37.938     0.000     32.67

------------------------------Saturation indices-------------------------------

	Phase               SI   log IAP   log K(373 K, 421 atm)

	CO2(g)            2.30      0.18   -2.12  CO2	 Pressure 421.1 atm, phi 0.474
	H2(g)           -14.45    -17.72   -3.27  H2
	H2O(g)            0.09     -0.01   -0.10  H2O
	O2(g)           -34.63    -37.94   -3.31  O2


------------------
End of simulation.
------------------

--------------------------------------
Reading input data for simulation 108.
--------------------------------------

		SOLUTION 1
	 temp 100
	 pH 3 charge
	C(4) 1 CO2(g)   2.6445e+00
	pressure   4.4110e+02
	END
-------------------------------------------
Beginning of initial solution calculations.
-------------------------------------------

Initial solution 1.	

-----------------------------Solution composition------------------------------

	Elements           Molality       Moles

	C(4)              1.536e+00   1.536e+00  Equilibrium with CO2(g)

----------------------------Description of solution----------------------------

                                       pH  =   3.064      Charge balance
                                       pe  =   4.000    
       Specific Conductance (uS/cm, 100 oC) = 1088
                          Density (g/cm3)  =   1.00327
                               Volume (L)  =   1.13920
                        Activity of water  =   0.974
                           Ionic strength  =   8.956e-04
                       Mass of water (kg)  =   1.000e+00
                 Total alkalinity (eq/kg)  =  -3.538e-18
                       Total CO2 (mol/kg)  =   1.536e+00
                      Temperature (deg C)  = 100.00
                           Pressure (atm)  = 441.10
                  Electrical balance (eq)  =   3.538e-18
 Percent error, 100*(Cat-|An|)/(Cat+|An|)  =   0.00
                               Iterations  =   7
                                  Total H  = 1.110142e+02
                                  Total O  = 5.857973e+01

----------------------------Distribution of species----------------------------

                                               Log       Log       Log    mole V
   Species          Molality    Activity  Molality  Activity     Gamma   cm3/mol

   H+              8.956e-04   8.632e-04    -3.048    -3.064    -0.016      0.00
   OH-             9.844e-10   9.470e-10    -9.007    -9.024    -0.017     -7.58
   H2O             5.551e+01   9.739e-01     1.744    -0.012     0.000     18.42
C(4)          1.536e+00
   CO2             1.535e+00   1.536e+00     0.186     0.186     0.000     27.21
   HCO3-           8.956e-04   8.621e-04    -3.048    -3.064    -0.017     25.84
   CO3-2           1.371e-10   1.177e-10    -9.863    -9.929    -0.066    -10.48
H(0)          3.863e-18
   H2              1.931e-18   1.932e-18   -17.714   -17.714     0.000     28.39
O(0)          2.175e-38
   O2              1.088e-38   1.088e-38   -37.964   -37.963     0.000     32.62

------------------------------Saturation indices-------------------------------

	Phase               SI   log IAP   log K(373 K, 441 atm)

	CO2(g)            2.32      0.19   -2.13  CO2	 Pressure 441.1 atm, phi 0.469
	H2(g)           -14.44    -17.71   -3.28  H2
	H2O(g)            0.10     -0.01   -0.11  H2O
	O2(g)           -34.65    -37.96   -3.32  O2


------------------
End of simulation.
------------------

--------------------------------------
Reading input data for simulation 109.
--------------------------------------

		SOLUTION 1
	 temp 100
	 pH 3 charge
	C(4) 1 CO2(g)   2.6638e+00
	pressure   4.6110e+02
	END
-------------------------------------------
Beginning of initial solution calculations.
-------------------------------------------

Initial solution 1.	

-----------------------------Solution composition------------------------------

	Elements           Molality       Moles

	C(4)              1.558e+00   1.558e+00  Equilibrium with CO2(g)

----------------------------Description of solution----------------------------

                                       pH  =   3.057      Charge balance
                                       pe  =   4.000    
       Specific Conductance (uS/cm, 100 oC) = 1104
                          Density (g/cm3)  =   1.00408
                               Volume (L)  =   1.14032
                        Activity of water  =   0.973
                           Ionic strength  =   9.091e-04
                       Mass of water (kg)  =   1.000e+00
                 Total alkalinity (eq/kg)  =  -2.347e-18
                       Total CO2 (mol/kg)  =   1.558e+00
                      Temperature (deg C)  = 100.00
                           Pressure (atm)  = 461.10
                  Electrical balance (eq)  =   2.347e-18
 Percent error, 100*(Cat-|An|)/(Cat+|An|)  =   0.00
                               Iterations  =   7
                                  Total H  = 1.110143e+02
                                  Total O  = 5.862395e+01

----------------------------Distribution of species----------------------------

                                               Log       Log       Log    mole V
   Species          Molality    Activity  Molality  Activity     Gamma   cm3/mol

   H+              9.091e-04   8.761e-04    -3.041    -3.057    -0.016      0.00
   OH-             9.871e-10   9.494e-10    -9.006    -9.023    -0.017     -7.64
   H2O             5.551e+01   9.735e-01     1.744    -0.012     0.000     18.40
C(4)          1.558e+00
   CO2             1.558e+00   1.558e+00     0.192     0.193     0.000     27.45
   HCO3-           9.091e-04   8.750e-04    -3.041    -3.058    -0.017     25.89
   CO3-2           1.400e-10   1.202e-10    -9.854    -9.920    -0.066    -10.22
H(0)          3.906e-18
   H2              1.953e-18   1.953e-18   -17.709   -17.709     0.000     28.38
O(0)          2.055e-38
   O2              1.027e-38   1.028e-38   -37.988   -37.988     0.000     32.57

------------------------------Saturation indices-------------------------------

	Phase               SI   log IAP   log K(373 K, 461 atm)

	CO2(g)            2.33      0.19   -2.14  CO2	 Pressure 461.1 atm, phi 0.465
	H2(g)           -14.42    -17.71   -3.29  H2
	H2O(g)            0.10     -0.01   -0.12  H2O
	O2(g)           -34.66    -37.99   -3.33  O2


------------------
End of simulation.
------------------

--------------------------------------
Reading input data for simulation 110.
--------------------------------------

		SOLUTION 1
	 temp 100
	 pH 3 charge
	C(4) 1 CO2(g)   2.6822e+00
	pressure   4.8110e+02
	END
-------------------------------------------
Beginning of initial solution calculations.
-------------------------------------------

Initial solution 1.	

-----------------------------Solution composition------------------------------

	Elements           Molality       Moles

	C(4)              1.579e+00   1.579e+00  Equilibrium with CO2(g)

----------------------------Description of solution----------------------------

                                       pH  =   3.051      Charge balance
                                       pe  =   4.000    
       Specific Conductance (uS/cm, 100 oC) = 1120
                          Density (g/cm3)  =   1.00486
                               Volume (L)  =   1.14135
                        Activity of water  =   0.973
                           Ionic strength  =   9.225e-04
                       Mass of water (kg)  =   1.000e+00
                 Total alkalinity (eq/kg)  =  -7.832e-18
                       Total CO2 (mol/kg)  =   1.579e+00
                      Temperature (deg C)  = 100.00
                           Pressure (atm)  = 481.10
                  Electrical balance (eq)  =   7.832e-18
 Percent error, 100*(Cat-|An|)/(Cat+|An|)  =   0.00
                               Iterations  =   7
                                  Total H  = 1.110143e+02
                                  Total O  = 5.866540e+01

----------------------------Distribution of species----------------------------

                                               Log       Log       Log    mole V
   Species          Molality    Activity  Molality  Activity     Gamma   cm3/mol

   H+              9.225e-04   8.888e-04    -3.035    -3.051    -0.016      0.00
   OH-             9.903e-10   9.522e-10    -9.004    -9.021    -0.017     -7.71
   H2O             5.551e+01   9.731e-01     1.744    -0.012     0.000     18.39
C(4)          1.579e+00
   CO2             1.578e+00   1.579e+00     0.198     0.198     0.000     27.70
   HCO3-           9.225e-04   8.876e-04    -3.035    -3.052    -0.017     25.93
   CO3-2           1.430e-10   1.226e-10    -9.845    -9.911    -0.067     -9.95
H(0)          3.947e-18
   H2              1.973e-18   1.974e-18   -17.705   -17.705     0.000     28.37
O(0)          1.944e-38
   O2              9.722e-39   9.724e-39   -38.012   -38.012     0.000     32.52

------------------------------Saturation indices-------------------------------

	Phase               SI   log IAP   log K(373 K, 481 atm)

	CO2(g)            2.35      0.20   -2.15  CO2	 Pressure 481.1 atm, phi 0.462
	H2(g)           -14.41    -17.70   -3.29  H2
	H2O(g)            0.11     -0.01   -0.12  H2O
	O2(g)           -34.68    -38.01   -3.34  O2


------------------
End of simulation.
------------------

--------------------------------------
Reading input data for simulation 111.
--------------------------------------

		SOLUTION 1
	 temp 100
	 pH 3 charge
	C(4) 1 CO2(g)   2.6999e+00
	pressure   5.0110e+02
	END
-------------------------------------------
Beginning of initial solution calculations.
-------------------------------------------

Initial solution 1.	

-----------------------------Solution composition------------------------------

	Elements           Molality       Moles

	C(4)              1.599e+00   1.599e+00  Equilibrium with CO2(g)

----------------------------Description of solution----------------------------

                                       pH  =   3.045      Charge balance
                                       pe  =   4.000    
       Specific Conductance (uS/cm, 100 oC) = 1136
                          Density (g/cm3)  =   1.00562
                               Volume (L)  =   1.14232
                        Activity of water  =   0.973
                           Ionic strength  =   9.357e-04
                       Mass of water (kg)  =   1.000e+00
                 Total alkalinity (eq/kg)  =  -7.145e-18
                       Total CO2 (mol/kg)  =   1.599e+00
                      Temperature (deg C)  = 100.00
                           Pressure (atm)  = 501.10
                  Electrical balance (eq)  =   7.145e-18
 Percent error, 100*(Cat-|An|)/(Cat+|An|)  =   0.00
                               Iterations  =   7
                                  Total H  = 1.110143e+02
                                  Total O  = 5.870494e+01

----------------------------Distribution of species----------------------------

                                               Log       Log       Log    mole V
   Species          Molality    Activity  Molality  Activity     Gamma   cm3/mol

   H+              9.357e-04   9.014e-04    -3.029    -3.045    -0.016      0.00
   OH-             9.939e-10   9.554e-10    -9.003    -9.020    -0.017     -7.77
   H2O             5.551e+01   9.728e-01     1.744    -0.012     0.000     18.37
C(4)          1.599e+00
   CO2             1.598e+00   1.598e+00     0.204     0.204     0.000     27.94
   HCO3-           9.357e-04   9.002e-04    -3.029    -3.046    -0.017     25.97
   CO3-2           1.460e-10   1.251e-10    -9.836    -9.903    -0.067     -9.69
H(0)          3.985e-18
   H2              1.993e-18   1.993e-18   -17.701   -17.700     0.000     28.36
O(0)          1.842e-38
   O2              9.210e-39   9.212e-39   -38.036   -38.036     0.000     32.48

------------------------------Saturation indices-------------------------------

	Phase               SI   log IAP   log K(373 K, 501 atm)

	CO2(g)            2.36      0.20   -2.16  CO2	 Pressure 501.1 atm, phi 0.459
	H2(g)           -14.40    -17.70   -3.30  H2
	H2O(g)            0.11     -0.01   -0.13  H2O
	O2(g)           -34.69    -38.04   -3.34  O2


------------------
End of simulation.
------------------

--------------------------------------
Reading input data for simulation 112.
--------------------------------------

	END
------------------
End of simulation.
------------------

--------------------------------------
Reading input data for simulation 113.
--------------------------------------

------------------------------
End of Run after 0.06 Seconds.
------------------------------

