   Input file: co2_tc
  Output file: co2_tc.out
Database file: ../database/phreeqc.dat

------------------
Reading data base.
------------------

	SOLUTION_MASTER_SPECIES
	SOLUTION_SPECIES
	PHASES
	EXCHANGE_MASTER_SPECIES
	EXCHANGE_SPECIES
	SURFACE_MASTER_SPECIES
	SURFACE_SPECIES
	RATES
	END
------------------------------------
Reading input data for simulation 1.
------------------------------------

	DATABASE ../database/phreeqc.dat
	SOLUTION_SPECIES
	CO3-2 + 2 H+ = CO2 + H2O
		log_k	16.681
		delta_h -5.738	kcal
		analytical_expression	464.1965	0.09344813	-26986.16	-165.75951	2248628.9
		dw	 1.92e-9
		vm   12.84 -24.3 11.1 1.52 # supcrit modified
	SOLUTION 1
	 pH 7 charge
	 temp 25
	EQUILIBRIUM_PHASES
	 CO2(g) 1.99
	GAS_PHASE 1
	     fixed_volume
	     CO2(g) 0
	 H2O(g) 0
	REACTION_TEMPERATURE
	 25 200 in 10
	USER_GRAPH
	 -plot_csv_file CO2_tc.dat
	 -axis_titles "Temp / oC" "CO2 solubility at 100 bar / (mol/kgw)"
	 -connect_simulations false
	 10 graph_x tc
	 20 graph_y tot("C")
	END
-------------------------------------------
Beginning of initial solution calculations.
-------------------------------------------

Initial solution 1.	

-----------------------------Solution composition------------------------------

	Elements           Molality       Moles

	Pure water     

----------------------------Description of solution----------------------------

                                       pH  =   7.000      Charge balance
                                       pe  =   4.000    
       Specific Conductance (uS/cm, 25 oC) = 0
                          Density (g/cm3)  =   0.99704
                        Activity of water  =   1.000
                           Ionic strength  =   1.001e-07
                       Mass of water (kg)  =   1.000e+00
                 Total alkalinity (eq/kg)  =   6.310e-18
                    Total carbon (mol/kg)  =   0.000e+00
                       Total CO2 (mol/kg)  =   0.000e+00
                      Temperature (deg C)  =  25.00
                  Electrical balance (eq)  =  -6.310e-18
 Percent error, 100*(Cat-|An|)/(Cat+|An|)  =  -0.00
                               Iterations  =   2
                                  Total H  = 1.110124e+02
                                  Total O  = 5.550622e+01

----------------------------Distribution of species----------------------------

                                               Log       Log       Log    mole V
   Species          Molality    Activity  Molality  Activity     Gamma   cm3/mol

   OH-             1.001e-07   1.001e-07    -6.999    -7.000    -0.000     -4.11
   H+              1.001e-07   1.001e-07    -6.999    -7.000    -0.000      0.00
   H2O             5.551e+01   1.000e+00     1.744    -0.000     0.000     18.07
H(0)          1.419e-25
   H2              7.095e-26   7.095e-26   -25.149   -25.149     0.000     28.61
O(0)          0.000e+00
   O2              0.000e+00   0.000e+00   -42.082   -42.082     0.000     30.40

------------------------------Saturation indices-------------------------------

	Phase               SI   log IAP   log K(298 K,   1 atm)

	H2(g)           -22.05    -25.15   -3.10  H2
	H2O(g)           -1.50     -0.00    1.50  H2O
	O2(g)           -39.19    -42.08   -2.89  O2


-----------------------------------------
Beginning of batch-reaction calculations.
-----------------------------------------

Reaction step 1.

WARNING: Numerical method failed, switching to numerical derivatives.
WARNING: Maximum iterations exceeded, 100

WARNING: Numerical method failed with this set of convergence parameters.

WARNING: Trying smaller step size, pe step size 10, 5 ... 

Using solution 1.	
Using pure phase assemblage 1.	
Using gas phase 1.	
Using temperature 1.	

-----------------------------------Gas phase-----------------------------------

Total pressure: 65.13      atmospheres          (Peng-Robinson calculation)
    Gas volume:   1.00e+00 liters
  Molar volume:   1.16e-01 liters/mole
   P * Vm / RT:  0.30853  (Compressibility Factor Z) 

                                                        Moles in gas
                                            ----------------------------------
Component         log P           P    phi     Initial       Final       Delta

CO2(g)             1.81   6.503e+01  0.657   0.000e+00   8.615e+00   8.615e+00
H2O(g)            -0.98   1.051e-01  0.306   0.000e+00   1.392e-02   1.392e-02

-------------------------------Phase assemblage--------------------------------

                                                      Moles in assemblage
Phase               SI  log IAP  log K(T, P)   Initial       Final       Delta

CO2(g)            1.60     0.14     -1.46    1.000e+01           0  -1.000e+01

-----------------------------Solution composition------------------------------

	Elements           Molality       Moles

	C                 1.386e+00   1.385e+00

----------------------------Description of solution----------------------------

                                       pH  =   3.099      Charge balance
                                       pe  =   1.374      Adjusted to redox equilibrium
       Specific Conductance (uS/cm, 25 oC) = 317
                          Density (g/cm3)  =   1.02457
                        Activity of water  =   0.976
                           Ionic strength  =   8.204e-04
                       Mass of water (kg)  =   9.997e-01
                 Total alkalinity (eq/kg)  =  -1.050e-12
                       Total CO2 (mol/kg)  =   1.386e+00
                      Temperature (deg C)  =  25.00
                           Pressure (atm)  = 65.13
                  Electrical balance (eq)  =   1.049e-12
 Percent error, 100*(Cat-|An|)/(Cat+|An|)  =   0.00
                               Iterations  =  48
                                  Total H  = 1.109846e+02
                                  Total O  = 5.826307e+01

----------------------------Distribution of species----------------------------

                                               Log       Log       Log    mole V
   Species          Molality    Activity  Molality  Activity     Gamma   cm3/mol

   H+              8.204e-04   7.954e-04    -3.086    -3.099    -0.013      0.00
   OH-             1.346e-11   1.303e-11   -10.871   -10.885    -0.014     -3.85
   H2O             5.551e+01   9.764e-01     1.744    -0.010     0.000     18.02
C(-4)         5.235e-12
   CH4             5.235e-12   5.236e-12   -11.281   -11.281     0.000     32.22
C(4)          1.386e+00
   CO2             1.385e+00   1.385e+00     0.141     0.142     0.000     25.61
   HCO3-           8.204e-04   7.946e-04    -3.086    -3.100    -0.014     24.79
   CO3-2           5.733e-11   5.046e-11   -10.242   -10.297    -0.055     -3.52
H(0)          1.487e-12
   H2              7.433e-13   7.434e-13   -12.129   -12.129     0.000     28.58
O(0)          0.000e+00
   O2              0.000e+00   0.000e+00   -68.202   -68.202     0.000     30.31

------------------------------Saturation indices-------------------------------

	Phase               SI   log IAP   log K(298 K,  65 atm)

	CH4(g)           -8.50    -11.28   -2.78  CH4
	CO2(g)            1.58      0.14   -1.44  CO2	 Pressure  65.0 atm, phi 0.657.
	H2(g)            -9.03    -12.13   -3.10  H2
	H2O(g)           -1.49     -0.01    1.48  H2O	 Pressure   0.1 atm, phi 0.306.
	O2(g)           -65.27    -68.20   -2.93  O2


Reaction step 2.

Using solution 1.	
Using pure phase assemblage 1.	
Using gas phase 1.	
Using temperature 1.	

-----------------------------------Gas phase-----------------------------------

Total pressure: 91.63      atmospheres          (Peng-Robinson calculation)
    Gas volume:   1.00e+00 liters
  Molar volume:   1.13e-01 liters/mole
   P * Vm / RT:  0.39649  (Compressibility Factor Z) 

                                                        Moles in gas
                                            ----------------------------------
Component         log P           P    phi     Initial       Final       Delta

CO2(g)             1.96   9.131e+01  0.619   0.000e+00   8.836e+00   8.836e+00
H2O(g)            -0.49   3.230e-01  0.297   0.000e+00   3.126e-02   3.126e-02

-------------------------------Phase assemblage--------------------------------

                                                      Moles in assemblage
Phase               SI  log IAP  log K(T, P)   Initial       Final       Delta

CO2(g)            1.68     0.07     -1.62    1.000e+01           0  -1.000e+01

-----------------------------Solution composition------------------------------

	Elements           Molality       Moles

	C                 1.165e+00   1.164e+00

----------------------------Description of solution----------------------------

                                       pH  =   3.104      Charge balance
                                       pe  =   0.531      Adjusted to redox equilibrium
       Specific Conductance (uS/cm, 44 oC) = 465
                          Density (g/cm3)  =   1.01732
                        Activity of water  =   0.980
                           Ionic strength  =   8.129e-04
                       Mass of water (kg)  =   9.994e-01
                 Total alkalinity (eq/kg)  =  -8.243e-14
                       Total CO2 (mol/kg)  =   1.165e+00
                      Temperature (deg C)  =  44.44
                           Pressure (atm)  = 91.63
                  Electrical balance (eq)  =   8.239e-14
 Percent error, 100*(Cat-|An|)/(Cat+|An|)  =   0.00
                               Iterations  =  55
                                  Total H  = 1.109499e+02
                                  Total O  = 5.780288e+01

----------------------------Distribution of species----------------------------

                                               Log       Log       Log    mole V
   Species          Molality    Activity  Molality  Activity     Gamma   cm3/mol

   H+              8.129e-04   7.875e-04    -3.090    -3.104    -0.014      0.00
   OH-             5.400e-11   5.223e-11   -10.268   -10.282    -0.015     -3.34
   H2O             5.551e+01   9.802e-01     1.744    -0.009     0.000     18.12
C(-4)         6.092e-08
   CH4             6.092e-08   6.093e-08    -7.215    -7.215     0.000     32.22
C(4)          1.165e+00
   CO2             1.164e+00   1.164e+00     0.066     0.066     0.000     23.79
   HCO3-           8.129e-04   7.867e-04    -3.090    -3.104    -0.014     25.47
   CO3-2           7.947e-11   6.968e-11   -10.100   -10.157    -0.057     -2.36
H(0)          5.759e-11
   H2              2.879e-11   2.880e-11   -10.541   -10.541     0.000     28.55
O(0)          0.000e+00
   O2              0.000e+00   0.000e+00   -65.504   -65.504     0.000     31.45

------------------------------Saturation indices-------------------------------

	Phase               SI   log IAP   log K(317 K,  92 atm)

	CH4(g)           -4.34     -7.22   -2.88  CH4
	CO2(g)            1.69      0.07   -1.62  CO2	 Pressure  91.3 atm, phi 0.619.
	H2(g)            -7.41    -10.54   -3.13  H2
	H2O(g)           -1.02     -0.01    1.01  H2O	 Pressure   0.3 atm, phi 0.297.
	O2(g)           -62.44    -65.50   -3.06  O2


Reaction step 3.

Using solution 1.	
Using pure phase assemblage 1.	
Using gas phase 1.	
Using temperature 1.	

-----------------------------------Gas phase-----------------------------------

Total pressure: 98.76      atmospheres          (Peng-Robinson calculation)
    Gas volume:   1.00e+00 liters
  Molar volume:   1.59e-01 liters/mole
   P * Vm / RT:  0.56766  (Compressibility Factor Z) 

                                                        Moles in gas
                                            ----------------------------------
Component         log P           P    phi     Initial       Final       Delta

CO2(g)             1.99   9.816e+01  0.671   0.000e+00   6.252e+00   6.252e+00
H2O(g)            -0.22   6.034e-01  0.406   0.000e+00   3.844e-02   3.844e-02

-------------------------------Phase assemblage--------------------------------

                                                      Moles in assemblage
Phase               SI  log IAP  log K(T, P)   Initial       Final       Delta

CO2(g)            1.75    -0.01     -1.76    1.000e+01   2.765e+00  -7.235e+00

-----------------------------Solution composition------------------------------

	Elements           Molality       Moles

	C                 9.837e-01   9.830e-01

----------------------------Description of solution----------------------------

                                       pH  =   3.143      Charge balance
                                       pe  =   0.590      Adjusted to redox equilibrium
       Specific Conductance (uS/cm, 63 oC) = 580
                          Density (g/cm3)  =   1.00616
                        Activity of water  =   0.983
                           Ionic strength  =   7.423e-04
                       Mass of water (kg)  =   9.993e-01
                 Total alkalinity (eq/kg)  =  -1.093e-12
                       Total CO2 (mol/kg)  =   9.837e-01
                      Temperature (deg C)  =  63.89
                           Pressure (atm)  = 98.76
                  Electrical balance (eq)  =   1.092e-12
 Percent error, 100*(Cat-|An|)/(Cat+|An|)  =   0.00
                               Iterations  =  28
                                  Total H  = 1.109356e+02
                                  Total O  = 5.743381e+01

----------------------------Distribution of species----------------------------

                                               Log       Log       Log    mole V
   Species          Molality    Activity  Molality  Activity     Gamma   cm3/mol

   H+              7.423e-04   7.192e-04    -3.129    -3.143    -0.014      0.00
   OH-             1.812e-10   1.753e-10    -9.742    -9.756    -0.014     -3.62
   H2O             5.551e+01   9.833e-01     1.744    -0.007     0.000     18.28
C(-4)         3.547e-11
   CH4             3.547e-11   3.547e-11   -10.450   -10.450     0.000     32.22
C(4)          9.837e-01
   CO2             9.830e-01   9.831e-01    -0.007    -0.007     0.000     22.49
   HCO3-           7.423e-04   7.184e-04    -3.129    -3.144    -0.014     25.27
   CO3-2           9.193e-11   8.065e-11   -10.037   -10.093    -0.057     -2.75
H(0)          3.109e-11
   H2              1.554e-11   1.555e-11   -10.808   -10.808     0.000     28.53
O(0)          0.000e+00
   O2              0.000e+00   0.000e+00   -59.757   -59.757     0.000     32.30

------------------------------Saturation indices-------------------------------

	Phase               SI   log IAP   log K(337 K,  99 atm)

	CH4(g)           -7.51    -10.45   -2.94  CH4
	CO2(g)            1.75     -0.01   -1.76  CO2	 Pressure  98.2 atm, phi 0.671.
	H2(g)            -7.67    -10.81   -3.14  H2
	H2O(g)           -0.61     -0.01    0.60  H2O	 Pressure   0.6 atm, phi 0.406.
	O2(g)           -56.63    -59.76   -3.13  O2


Reaction step 4.

Using solution 1.	
Using pure phase assemblage 1.	
Using gas phase 1.	
Using temperature 1.	

-----------------------------------Gas phase-----------------------------------

Total pressure: 99.36      atmospheres          (Peng-Robinson calculation)
    Gas volume:   1.00e+00 liters
  Molar volume:   1.98e-01 liters/mole
   P * Vm / RT:  0.67292  (Compressibility Factor Z) 

                                                        Moles in gas
                                            ----------------------------------
Component         log P           P    phi     Initial       Final       Delta

CO2(g)             1.99   9.823e+01  0.727   0.000e+00   4.990e+00   4.990e+00
H2O(g)             0.05   1.128e+00  0.493   0.000e+00   5.728e-02   5.728e-02

-------------------------------Phase assemblage--------------------------------

                                                      Moles in assemblage
Phase               SI  log IAP  log K(T, P)   Initial       Final       Delta

CO2(g)            1.79    -0.07     -1.86    1.000e+01   4.164e+00  -5.836e+00

-----------------------------Solution composition------------------------------

	Elements           Molality       Moles

	C                 8.467e-01   8.459e-01

----------------------------Description of solution----------------------------

                                       pH  =   3.203      Charge balance
                                       pe  =  12.066      Adjusted to redox equilibrium
       Specific Conductance (uS/cm, 83 oC) = 653
                          Density (g/cm3)  =   0.99283
                        Activity of water  =   0.986
                           Ionic strength  =   6.463e-04
                       Mass of water (kg)  =   9.990e-01
                 Total alkalinity (eq/kg)  =   6.497e-16
                       Total CO2 (mol/kg)  =   8.467e-01
                      Temperature (deg C)  =  83.33
                           Pressure (atm)  = 99.36
                  Electrical balance (eq)  =  -6.490e-16
 Percent error, 100*(Cat-|An|)/(Cat+|An|)  =  -0.00
                               Iterations  =  46
                                  Total H  = 1.108979e+02
                                  Total O  = 5.714066e+01

----------------------------Distribution of species----------------------------

                                               Log       Log       Log    mole V
   Species          Molality    Activity  Molality  Activity     Gamma   cm3/mol

   H+              6.463e-04   6.265e-04    -3.190    -3.203    -0.013      0.00
   OH-             5.225e-10   5.058e-10    -9.282    -9.296    -0.014     -4.49
   H2O             5.551e+01   9.856e-01     1.744    -0.006     0.000     18.49
C(-4)         0.000e+00
   CH4             0.000e+00   0.000e+00  -105.011  -105.011     0.000     32.22
C(4)          8.467e-01
   CO2             8.461e-01   8.462e-01    -0.073    -0.073     0.000     21.52
   HCO3-           6.463e-04   6.260e-04    -3.190    -3.203    -0.014     24.43
   CO3-2           9.326e-11   8.206e-11   -10.030   -10.086    -0.056     -4.33
H(0)          2.291e-34
   H2              1.146e-34   1.146e-34   -33.941   -33.941     0.000     28.53
O(0)          2.869e-09
   O2              1.435e-09   1.435e-09    -8.843    -8.843     0.000     33.01

------------------------------Saturation indices-------------------------------

	Phase               SI   log IAP   log K(356 K,  99 atm)

	CH4(g)         -102.03   -105.01   -2.98  CH4
	CO2(g)            1.79     -0.07   -1.86  CO2	 Pressure  98.2 atm, phi 0.727.
	H2(g)           -30.82    -33.94   -3.12  H2
	H2O(g)           -0.26     -0.01    0.25  H2O	 Pressure   1.1 atm, phi 0.493.
	O2(g)            -5.68     -8.84   -3.16  O2


Reaction step 5.

Using solution 1.	
Using pure phase assemblage 1.	
Using gas phase 1.	
Using temperature 1.	

-----------------------------------Gas phase-----------------------------------

Total pressure: 100.44      atmospheres          (Peng-Robinson calculation)
    Gas volume:   1.00e+00 liters
  Molar volume:   2.27e-01 liters/mole
   P * Vm / RT:  0.73852  (Compressibility Factor Z) 

                                                        Moles in gas
                                            ----------------------------------
Component         log P           P    phi     Initial       Final       Delta

CO2(g)             1.99   9.837e+01  0.771   0.000e+00   4.318e+00   4.318e+00
H2O(g)             0.31   2.065e+00  0.554   0.000e+00   9.063e-02   9.063e-02

-------------------------------Phase assemblage--------------------------------

                                                      Moles in assemblage
Phase               SI  log IAP  log K(T, P)   Initial       Final       Delta

CO2(g)            1.82    -0.12     -1.94    1.000e+01   4.921e+00  -5.079e+00

-----------------------------Solution composition------------------------------

	Elements           Molality       Moles

	C                 7.625e-01   7.613e-01

----------------------------Description of solution----------------------------

                                       pH  =   3.271      Charge balance
                                       pe  =   1.882      Adjusted to redox equilibrium
       Specific Conductance (uS/cm, 102 oC) = 693
                          Density (g/cm3)  =   0.97365
                        Activity of water  =   0.987
                           Ionic strength  =   5.526e-04
                       Mass of water (kg)  =   9.984e-01
                 Total alkalinity (eq/kg)  =  -7.094e-14
                       Total CO2 (mol/kg)  =   7.625e-01
                      Temperature (deg C)  = 102.78
                           Pressure (atm)  = 100.44
                  Electrical balance (eq)  =   7.082e-14
 Percent error, 100*(Cat-|An|)/(Cat+|An|)  =   0.00
                               Iterations  =  61
                                  Total H  = 1.108312e+02
                                  Total O  = 5.693811e+01

----------------------------Distribution of species----------------------------

                                               Log       Log       Log    mole V
   Species          Molality    Activity  Molality  Activity     Gamma   cm3/mol

   H+              5.526e-04   5.361e-04    -3.258    -3.271    -0.013      0.00
   OH-             1.309e-09   1.268e-09    -8.883    -8.897    -0.014     -5.93
   H2O             5.551e+01   9.870e-01     1.744    -0.006     0.000     18.84
C(-4)         6.492e-27
   CH4             6.492e-27   6.493e-27   -26.188   -26.188     0.000     32.22
C(4)          7.625e-01
   CO2             7.620e-01   7.621e-01    -0.118    -0.118     0.000     20.82
   HCO3-           5.526e-04   5.357e-04    -3.258    -3.271    -0.013     22.97
   CO3-2           8.569e-11   7.568e-11   -10.067   -10.121    -0.054     -7.01
H(0)          3.457e-14
   H2              1.728e-14   1.729e-14   -13.762   -13.762     0.000     28.52
O(0)          0.000e+00
   O2              0.000e+00   0.000e+00   -45.034   -45.033     0.000     33.67

------------------------------Saturation indices-------------------------------

	Phase               SI   log IAP   log K(375 K, 100 atm)

	CH4(g)          -23.21    -26.19   -2.97  CH4
	CO2(g)            1.81     -0.12   -1.93  CO2	 Pressure  98.4 atm, phi 0.771.
	H2(g)           -10.67    -13.76   -3.10  H2
	H2O(g)            0.06     -0.01   -0.06  H2O	 Pressure   2.1 atm, phi 0.554.
	O2(g)           -41.87    -45.03   -3.17  O2


Reaction step 6.

Using solution 1.	
Using pure phase assemblage 1.	
Using gas phase 1.	
Using temperature 1.	

-----------------------------------Gas phase-----------------------------------

Total pressure: 102.17      atmospheres          (Peng-Robinson calculation)
    Gas volume:   1.00e+00 liters
  Molar volume:   2.49e-01 liters/mole
   P * Vm / RT:  0.78329  (Compressibility Factor Z) 

                                                        Moles in gas
                                            ----------------------------------
Component         log P           P    phi     Initial       Final       Delta

CO2(g)             1.99   9.855e+01  0.806   0.000e+00   3.878e+00   3.878e+00
H2O(g)             0.56   3.617e+00  0.599   0.000e+00   1.423e-01   1.423e-01

-------------------------------Phase assemblage--------------------------------

                                                      Moles in assemblage
Phase               SI  log IAP  log K(T, P)   Initial       Final       Delta

CO2(g)            1.84    -0.15     -1.98    1.000e+01   5.409e+00  -4.591e+00

-----------------------------Solution composition------------------------------

	Elements           Molality       Moles

	C                 7.145e-01   7.127e-01

----------------------------Description of solution----------------------------

                                       pH  =   3.343      Charge balance
                                       pe  =   9.966      Adjusted to redox equilibrium
       Specific Conductance (uS/cm, 122 oC) = 707
                          Density (g/cm3)  =   0.95784
                        Activity of water  =   0.988
                           Ionic strength  =   4.671e-04
                       Mass of water (kg)  =   9.974e-01
                 Total alkalinity (eq/kg)  =   7.708e-14
                       Total CO2 (mol/kg)  =   7.145e-01
                      Temperature (deg C)  = 122.22
                           Pressure (atm)  = 102.17
                  Electrical balance (eq)  =  -7.688e-14
 Percent error, 100*(Cat-|An|)/(Cat+|An|)  =  -0.00
                               Iterations  =  44
                                  Total H  = 1.107278e+02
                                  Total O  = 5.678924e+01

----------------------------Distribution of species----------------------------

                                               Log       Log       Log    mole V
   Species          Molality    Activity  Molality  Activity     Gamma   cm3/mol

   H+              4.671e-04   4.536e-04    -3.331    -3.343    -0.013      0.00
   OH-             2.903e-09   2.816e-09    -8.537    -8.550    -0.013     -8.01
   H2O             5.551e+01   9.878e-01     1.744    -0.005     0.000     19.14
C(-4)         0.000e+00
   CH4             0.000e+00   0.000e+00   -93.403   -93.403     0.000     32.22
C(4)          7.145e-01
   CO2             7.140e-01   7.141e-01    -0.146    -0.146     0.000     20.30
   HCO3-           4.671e-04   4.532e-04    -3.331    -3.344    -0.013     20.82
   CO3-2           7.263e-11   6.439e-11   -10.139   -10.191    -0.052    -10.92
H(0)          1.503e-30
   H2              7.514e-31   7.514e-31   -30.124   -30.124     0.000     28.52
O(0)          5.588e-09
   O2              2.794e-09   2.794e-09    -8.554    -8.554     0.000     34.35

------------------------------Saturation indices-------------------------------

	Phase               SI   log IAP   log K(395 K, 102 atm)

	CH4(g)          -90.46    -93.40   -2.94  CH4
	CO2(g)            1.83     -0.15   -1.98  CO2	 Pressure  98.5 atm, phi 0.806.
	H2(g)           -27.07    -30.12   -3.05  H2
	H2O(g)            0.34     -0.01   -0.34  H2O	 Pressure   3.6 atm, phi 0.599.
	O2(g)            -5.41     -8.55   -3.15  O2


Reaction step 7.

Using solution 1.	
Using pure phase assemblage 1.	
Using gas phase 1.	
Using temperature 1.	

-----------------------------------Gas phase-----------------------------------

Total pressure: 104.78      atmospheres          (Peng-Robinson calculation)
    Gas volume:   1.00e+00 liters
  Molar volume:   2.65e-01 liters/mole
   P * Vm / RT:  0.81433  (Compressibility Factor Z) 

                                                        Moles in gas
                                            ----------------------------------
Component         log P           P    phi     Initial       Final       Delta

CO2(g)             1.99   9.873e+01  0.834   0.000e+00   3.562e+00   3.562e+00
H2O(g)             0.78   6.056e+00  0.631   0.000e+00   2.185e-01   2.185e-01

-------------------------------Phase assemblage--------------------------------

                                                      Moles in assemblage
Phase               SI  log IAP  log K(T, P)   Initial       Final       Delta

CO2(g)            1.85    -0.16     -2.01    1.000e+01   5.748e+00  -4.252e+00

-----------------------------Solution composition------------------------------

	Elements           Molality       Moles

	C                 6.928e-01   6.901e-01

----------------------------Description of solution----------------------------

                                       pH  =   3.419      Charge balance
                                       pe  =   9.017      Adjusted to redox equilibrium
       Specific Conductance (uS/cm, 141 oC) = 698
                          Density (g/cm3)  =   0.94085
                        Activity of water  =   0.988
                           Ionic strength  =   3.918e-04
                       Mass of water (kg)  =   9.961e-01
                 Total alkalinity (eq/kg)  =   5.065e-14
                       Total CO2 (mol/kg)  =   6.928e-01
                      Temperature (deg C)  = 141.67
                           Pressure (atm)  = 104.78
                  Electrical balance (eq)  =  -5.045e-14
 Percent error, 100*(Cat-|An|)/(Cat+|An|)  =  -0.00
                               Iterations  =  26
                                  Total H  = 1.105755e+02
                                  Total O  = 5.666793e+01

----------------------------Distribution of species----------------------------

                                               Log       Log       Log    mole V
   Species          Molality    Activity  Molality  Activity     Gamma   cm3/mol

   H+              3.918e-04   3.808e-04    -3.407    -3.419    -0.012      0.00
   OH-             5.792e-09   5.623e-09    -8.237    -8.250    -0.013    -10.88
   H2O             5.551e+01   9.882e-01     1.744    -0.005     0.000     19.48
C(-4)         0.000e+00
   CH4             0.000e+00   0.000e+00   -88.255   -88.255     0.000     32.22
C(4)          6.928e-01
   CO2             6.924e-01   6.925e-01    -0.160    -0.160     0.000     19.90
   HCO3-           3.918e-04   3.806e-04    -3.407    -3.420    -0.013     17.83
   CO3-2           5.758e-11   5.124e-11   -10.240   -10.290    -0.051    -16.36
H(0)          7.565e-29
   H2              3.783e-29   3.783e-29   -28.422   -28.422     0.000     28.51
O(0)          5.578e-09
   O2              2.789e-09   2.789e-09    -8.555    -8.554     0.000     35.09

------------------------------Saturation indices-------------------------------

	Phase               SI   log IAP   log K(414 K, 105 atm)

	CH4(g)          -85.36    -88.25   -2.89  CH4
	CO2(g)            1.84     -0.16   -2.00  CO2	 Pressure  98.7 atm, phi 0.834.
	H2(g)           -25.42    -28.42   -3.00  H2
	H2O(g)            0.58     -0.01   -0.59  H2O	 Pressure   6.1 atm, phi 0.631.
	O2(g)            -5.44     -8.55   -3.11  O2


Reaction step 8.

Using solution 1.	
Using pure phase assemblage 1.	
Using gas phase 1.	
Using temperature 1.	

-----------------------------------Gas phase-----------------------------------

Total pressure: 108.58      atmospheres          (Peng-Robinson calculation)
    Gas volume:   1.00e+00 liters
  Molar volume:   2.74e-01 liters/mole
   P * Vm / RT:  0.83505  (Compressibility Factor Z) 

                                                        Moles in gas
                                            ----------------------------------
Component         log P           P    phi     Initial       Final       Delta

CO2(g)             2.00   9.886e+01  0.858   0.000e+00   3.322e+00   3.322e+00
H2O(g)             0.99   9.720e+00  0.652   0.000e+00   3.267e-01   3.267e-01

-------------------------------Phase assemblage--------------------------------

                                                      Moles in assemblage
Phase               SI  log IAP  log K(T, P)   Initial       Final       Delta

CO2(g)            1.86    -0.16     -2.02    1.000e+01   5.990e+00  -4.010e+00

-----------------------------Solution composition------------------------------

	Elements           Molality       Moles

	C                 6.919e-01   6.878e-01

----------------------------Description of solution----------------------------

                                       pH  =   3.497      Charge balance
                                       pe  =   8.120      Adjusted to redox equilibrium
       Specific Conductance (uS/cm, 161 oC) = 674
                          Density (g/cm3)  =   0.92263
                        Activity of water  =   0.988
                           Ionic strength  =   3.271e-04
                       Mass of water (kg)  =   9.941e-01
                 Total alkalinity (eq/kg)  =  -9.772e-16
                       Total CO2 (mol/kg)  =   6.919e-01
                      Temperature (deg C)  = 161.11
                           Pressure (atm)  = 108.58
                  Electrical balance (eq)  =   9.714e-16
 Percent error, 100*(Cat-|An|)/(Cat+|An|)  =   0.00
                               Iterations  =  53
                                  Total H  = 1.103591e+02
                                  Total O  = 5.655520e+01

----------------------------Distribution of species----------------------------

                                               Log       Log       Log    mole V
   Species          Molality    Activity  Molality  Activity     Gamma   cm3/mol

   H+              3.271e-04   3.182e-04    -3.485    -3.497    -0.012      0.00
   OH-             1.052e-08   1.022e-08    -7.978    -7.990    -0.012    -14.78
   H2O             5.551e+01   9.882e-01     1.744    -0.005     0.000     19.88
C(-4)         0.000e+00
   CH4             0.000e+00   0.000e+00   -83.438   -83.438     0.000     32.22
C(4)          6.919e-01
   CO2             6.916e-01   6.916e-01    -0.160    -0.160     0.000     19.60
   HCO3-           3.271e-04   3.180e-04    -3.485    -3.498    -0.012     13.74
   CO3-2           4.319e-11   3.856e-11   -10.365   -10.414    -0.049    -23.78
H(0)          2.981e-27
   H2              1.490e-27   1.490e-27   -26.827   -26.827     0.000     28.51
O(0)          4.496e-09
   O2              2.248e-09   2.248e-09    -8.648    -8.648     0.000     35.97

------------------------------Saturation indices-------------------------------

	Phase               SI   log IAP   log K(434 K, 109 atm)

	CH4(g)          -80.61    -83.44   -2.82  CH4
	CO2(g)            1.85     -0.16   -2.01  CO2	 Pressure  98.9 atm, phi 0.858.
	H2(g)           -23.88    -26.83   -2.94  H2
	H2O(g)            0.80     -0.01   -0.81  H2O	 Pressure   9.7 atm, phi 0.652.
	O2(g)            -5.59     -8.65   -3.06  O2


Reaction step 9.

Using solution 1.	
Using pure phase assemblage 1.	
Using gas phase 1.	
Using temperature 1.	

-----------------------------------Gas phase-----------------------------------

Total pressure: 113.91      atmospheres          (Peng-Robinson calculation)
    Gas volume:   1.00e+00 liters
  Molar volume:   2.77e-01 liters/mole
   P * Vm / RT:  0.84720  (Compressibility Factor Z) 

                                                        Moles in gas
                                            ----------------------------------
Component         log P           P    phi     Initial       Final       Delta

CO2(g)             2.00   9.889e+01  0.879   0.000e+00   3.135e+00   3.135e+00
H2O(g)             1.18   1.502e+01  0.664   0.000e+00   4.763e-01   4.763e-01

-------------------------------Phase assemblage--------------------------------

                                                      Moles in assemblage
Phase               SI  log IAP  log K(T, P)   Initial       Final       Delta

CO2(g)            1.86    -0.15     -2.01    1.000e+01   6.162e+00  -3.838e+00

-----------------------------Solution composition------------------------------

	Elements           Molality       Moles

	C                 7.090e-01   7.029e-01

----------------------------Description of solution----------------------------

                                       pH  =   3.577      Charge balance
                                       pe  =   1.696      Adjusted to redox equilibrium
       Specific Conductance (uS/cm, 180 oC) = 640
                          Density (g/cm3)  =   0.90308
                        Activity of water  =   0.988
                           Ionic strength  =   2.722e-04
                       Mass of water (kg)  =   9.914e-01
                 Total alkalinity (eq/kg)  =  -1.554e-14
                       Total CO2 (mol/kg)  =   7.090e-01
                      Temperature (deg C)  = 180.56
                           Pressure (atm)  = 113.91
                  Electrical balance (eq)  =   1.541e-14
 Percent error, 100*(Cat-|An|)/(Cat+|An|)  =   0.00
                               Iterations  =  38
                                  Total H  = 1.100599e+02
                                  Total O  = 5.643575e+01

----------------------------Distribution of species----------------------------

                                               Log       Log       Log    mole V
   Species          Molality    Activity  Molality  Activity     Gamma   cm3/mol

   H+              2.722e-04   2.650e-04    -3.565    -3.577    -0.012      0.00
   OH-             1.757e-08   1.709e-08    -7.755    -7.767    -0.012    -20.08
   H2O             5.551e+01   9.879e-01     1.744    -0.005     0.000     20.32
C(-4)         4.878e-35
   CH4             4.878e-35   4.878e-35   -34.312   -34.312     0.000     32.22
C(4)          7.090e-01
   CO2             7.087e-01   7.088e-01    -0.150    -0.150     0.000     19.38
   HCO3-           2.722e-04   2.648e-04    -3.565    -3.577    -0.012      8.18
   CO3-2           3.093e-11   2.771e-11   -10.510   -10.557    -0.048    -33.87
H(0)          1.337e-14
   H2              6.687e-15   6.687e-15   -14.175   -14.175     0.000     28.50
O(0)          1.511e-31
   O2              7.556e-32   7.556e-32   -31.122   -31.122     0.000     37.05

------------------------------Saturation indices-------------------------------

	Phase               SI   log IAP   log K(453 K, 114 atm)

	CH4(g)          -31.58    -34.31   -2.73  CH4
	CO2(g)            1.84     -0.15   -1.99  CO2	 Pressure  98.9 atm, phi 0.879.
	H2(g)           -11.30    -14.17   -2.88  H2
	H2O(g)            1.00     -0.01   -1.00  H2O	 Pressure  15.0 atm, phi 0.664.
	O2(g)           -28.12    -31.12   -3.00  O2


Reaction step 10.

Using solution 1.	
Using pure phase assemblage 1.	
Using gas phase 1.	
Using temperature 1.	

-----------------------------------Gas phase-----------------------------------

Total pressure: 121.14      atmospheres          (Peng-Robinson calculation)
    Gas volume:   1.00e+00 liters
  Molar volume:   2.73e-01 liters/mole
   P * Vm / RT:  0.85159  (Compressibility Factor Z) 

                                                        Moles in gas
                                            ----------------------------------
Component         log P           P    phi     Initial       Final       Delta

CO2(g)             1.99   9.869e+01  0.899   0.000e+00   2.985e+00   2.985e+00
H2O(g)             1.35   2.244e+01  0.667   0.000e+00   6.787e-01   6.787e-01

-------------------------------Phase assemblage--------------------------------

                                                      Moles in assemblage
Phase               SI  log IAP  log K(T, P)   Initial       Final       Delta

CO2(g)            1.85    -0.13     -1.98    1.000e+01   6.281e+00  -3.719e+00

-----------------------------Solution composition------------------------------

	Elements           Molality       Moles

	C                 7.432e-01   7.341e-01

----------------------------Description of solution----------------------------

                                       pH  =   3.657      Charge balance
                                       pe  =   5.693      Adjusted to redox equilibrium
       Specific Conductance (uS/cm, 200 oC) = 599
                          Density (g/cm3)  =   0.88206
                        Activity of water  =   0.987
                           Ionic strength  =   2.263e-04
                       Mass of water (kg)  =   9.878e-01
                 Total alkalinity (eq/kg)  =   3.578e-13
                       Total CO2 (mol/kg)  =   7.432e-01
                      Temperature (deg C)  = 200.00
                           Pressure (atm)  = 121.14
                  Electrical balance (eq)  =  -3.535e-13
 Percent error, 100*(Cat-|An|)/(Cat+|An|)  =  -0.00
                               Iterations  =  30
                                  Total H  = 1.096549e+02
                                  Total O  = 5.629567e+01

----------------------------Distribution of species----------------------------

                                               Log       Log       Log    mole V
   Species          Molality    Activity  Molality  Activity     Gamma   cm3/mol

   H+              2.263e-04   2.204e-04    -3.645    -3.657    -0.011      0.00
   OH-             2.717e-08   2.645e-08    -7.566    -7.578    -0.012    -27.33
   H2O             5.551e+01   9.874e-01     1.744    -0.006     0.000     20.84
C(-4)         0.000e+00
   CH4             0.000e+00   0.000e+00   -68.480   -68.480     0.000     32.22
C(4)          7.432e-01
   CO2             7.430e-01   7.430e-01    -0.129    -0.129     0.000     19.23
   HCO3-           2.262e-04   2.203e-04    -3.645    -3.657    -0.012      0.55
   CO3-2           2.134e-11   1.918e-11   -10.671   -10.717    -0.046    -47.69
H(0)          8.639e-23
   H2              4.320e-23   4.320e-23   -22.365   -22.365     0.000     28.50
O(0)          1.429e-12
   O2              7.144e-13   7.144e-13   -12.146   -12.146     0.000     38.44

------------------------------Saturation indices-------------------------------

	Phase               SI   log IAP   log K(473 K, 121 atm)

	CH4(g)          -65.85    -68.48   -2.63  CH4
	CO2(g)            1.83     -0.13   -1.96  CO2	 Pressure  98.7 atm, phi 0.899.
	H2(g)           -19.56    -22.36   -2.81  H2
	H2O(g)            1.18     -0.01   -1.18  H2O	 Pressure  22.4 atm, phi 0.667.
	O2(g)            -9.22    -12.15   -2.92  O2


------------------
End of simulation.
------------------

------------------------------------
Reading input data for simulation 2.
------------------------------------

------------------------------
End of Run after 0.07 Seconds.
------------------------------

