WARNING: Database file from DATABASE keyword is used; command line argument ignored.
   Input file: co2_VP
  Output file: co2_VP.out
Database file: ../database/phreeqc.dat

------------------
Reading data base.
------------------

	SOLUTION_MASTER_SPECIES
	SOLUTION_SPECIES
	PHASES
	EXCHANGE_MASTER_SPECIES
	EXCHANGE_SPECIES
	SURFACE_MASTER_SPECIES
	SURFACE_SPECIES
	RATES
	END
------------------------------------
Reading input data for simulation 1.
------------------------------------

	database ../database/phreeqc.dat # contains Dw's since version 2.17
	SOLUTION 1
	temp 25 # 40.09
	REACTION 1
	CO2 1
	 0.1 10*0.4 12*2
	INCREMENTAL_REACTIONS true
	GAS_PHASE 1
	fixed_volume
	 CO2(g) 20
	USER_GRAPH
	-headings Vm
	-plot_csv_file co2_VP.dat
	-connect_simulations false
	-axis_scale x_axis 0 0.5 #0.2
	-axis_scale y_axis 0 500 #100
	-axis_titles "molar volume / (L/mol)" "Gas pressure / atm"
	60 graph_x 1 / gas("CO2(g)")
	70 graph_y  gas_p #* pr_phi("CO2(g)")
	END
-------------------------------------------
Beginning of initial solution calculations.
-------------------------------------------

Initial solution 1.	

-----------------------------Solution composition------------------------------

	Elements           Molality       Moles

	Pure water     

----------------------------Description of solution----------------------------

                                       pH  =   7.000    
                                       pe  =   4.000    
       Specific Conductance (uS/cm, 25 oC) = 0
                          Density (g/cm3)  =   0.99704
                               Volume (L)  =   1.00297
                        Activity of water  =   1.000
                           Ionic strength  =   1.007e-07
                       Mass of water (kg)  =   1.000e+00
                 Total alkalinity (eq/kg)  =   1.217e-09
                    Total carbon (mol/kg)  =   0.000e+00
                       Total CO2 (mol/kg)  =   0.000e+00
                      Temperature (deg C)  =  25.00
                  Electrical balance (eq)  =  -1.217e-09
 Percent error, 100*(Cat-|An|)/(Cat+|An|)  =  -0.60
                               Iterations  =   0
                                  Total H  = 1.110124e+02
                                  Total O  = 5.550622e+01

----------------------------Distribution of species----------------------------

                                               Log       Log       Log    mole V
   Species          Molality    Activity  Molality  Activity     Gamma   cm3/mol

   OH-             1.013e-07   1.012e-07    -6.995    -6.995    -0.000     -4.14
   H+              1.001e-07   1.000e-07    -7.000    -7.000    -0.000      0.00
   H2O             5.551e+01   1.000e+00     1.744     0.000     0.000     18.07
H(0)          1.416e-25
   H2              7.079e-26   7.079e-26   -25.150   -25.150     0.000     28.61
O(0)          0.000e+00
   O2              0.000e+00   0.000e+00   -42.080   -42.080     0.000     30.40

------------------------------Saturation indices-------------------------------

	Phase               SI** log IAP   log K(298 K,   1 atm)

	H2(g)           -22.05    -25.15   -3.10  H2
	H2O(g)           -1.50      0.00    1.50  H2O
	O2(g)           -39.19    -42.08   -2.89  O2

**For a gas, SI = log10(fugacity). For ideal gases, fugacity = pressure / 1 atm.
For a Peng-Robinson gas, fugacity = pressure * phi / 1 atm

-----------------------------------------
Beginning of batch-reaction calculations.
-----------------------------------------

Reaction step 1.

Using solution 1.	
Using gas phase 1.	
Using reaction 1.	

Reaction 1.	

	  1.000e-01 moles of the following reaction have been added:

	                 Relative
	Reactant            moles

	CO2                  1.00000

	                 Relative
	Element             moles
	C                    1.00000
	O                    2.00000

-----------------------------------Gas phase-----------------------------------

Total pressure: 13.53      atmospheres          (Peng-Robinson calculation)
    Gas volume:   1.00e+00 liters
  Molar volume:   1.67e+00 liters/mole
   P * Vm / RT:  0.92203  (Compressibility Factor Z) 

                                                        Moles in gas
                                            ----------------------------------
Component         log P           P    phi     Initial       Final       Delta

CO2(g)             1.13   1.353e+01  0.926   9.267e-01   5.996e-01  -3.271e-01

-----------------------------Solution composition------------------------------

	Elements           Molality       Moles

	C                 4.271e-01   4.271e-01

----------------------------Description of solution----------------------------

                                       pH  =   3.360      Charge balance
                                       pe  =  14.533      Adjusted to redox equilibrium
       Specific Conductance (uS/cm, 25 oC) = 173
                          Density (g/cm3)  =   1.00390
                               Volume (L)  =   1.03569
                        Activity of water  =   0.993
                           Ionic strength  =   4.470e-04
                       Mass of water (kg)  =   1.000e+00
                 Total alkalinity (eq/kg)  =   1.216e-09
                       Total CO2 (mol/kg)  =   4.271e-01
                      Temperature (deg C)  =  25.00
                           Pressure (atm)  = 13.53
                  Electrical balance (eq)  =  -1.216e-09
 Percent error, 100*(Cat-|An|)/(Cat+|An|)  =  -0.00
                               Iterations  =  34
                                  Total H  = 1.110124e+02
                                  Total O  = 5.636047e+01

----------------------------Distribution of species----------------------------

                                               Log       Log       Log    mole V
   Species          Molality    Activity  Molality  Activity     Gamma   cm3/mol

   H+              4.470e-04   4.367e-04    -3.350    -3.360    -0.010      0.00
   OH-             2.384e-11   2.327e-11   -10.623   -10.633    -0.011     -4.07
   H2O             5.551e+01   9.927e-01     1.744    -0.003     0.000     18.06
C(-4)         0.000e+00
   CH4             0.000e+00   0.000e+00  -119.121  -119.121     0.000     32.22
C(4)          4.271e-01
   CO2             4.267e-01   4.267e-01    -0.370    -0.370     0.000     29.14
   HCO3-           4.470e-04   4.365e-04    -3.350    -3.360    -0.010     24.71
   CO3-2           5.238e-11   4.760e-11   -10.281   -10.322    -0.042     -5.42
H(0)          2.290e-39
   H2              1.145e-39   1.145e-39   -38.941   -38.941     0.000     28.60
O(0)          6.101e-15
   O2              3.051e-15   3.051e-15   -14.516   -14.516     0.000     30.38

------------------------------Saturation indices-------------------------------

	Phase               SI** log IAP   log K(298 K,  14 atm)

	CH4(g)         -116.27   -119.12   -2.85  CH4
	CO2(g)            1.10     -0.37   -1.47  CO2	 Pressure  13.5 atm, phi 0.926
	H2(g)           -35.83    -38.94   -3.11  H2
	H2O(g)           -1.50     -0.00    1.50  H2O
	O2(g)           -11.62    -14.52   -2.90  O2

**For a gas, SI = log10(fugacity). For ideal gases, fugacity = pressure / 1 atm.
For a Peng-Robinson gas, fugacity = pressure * phi / 1 atm

Reaction step 2.

Using solution 1.	
Using gas phase 1.	
Using reaction 1.	

Reaction 1.	

	  4.000e-01 moles of the following reaction have been added:

	                 Relative
	Reactant            moles

	CO2                  1.00000

	                 Relative
	Element             moles
	C                    1.00000
	O                    2.00000

-----------------------------------Gas phase-----------------------------------

Total pressure: 18.68      atmospheres          (Peng-Robinson calculation)
    Gas volume:   1.00e+00 liters
  Molar volume:   1.17e+00 liters/mole
   P * Vm / RT:  0.89037  (Compressibility Factor Z) 

                                                        Moles in gas
                                            ----------------------------------
Component         log P           P    phi     Initial       Final       Delta

CO2(g)             1.27   1.868e+01  0.899   5.996e-01   8.577e-01   2.581e-01

-----------------------------Solution composition------------------------------

	Elements           Molality       Moles

	C                 5.690e-01   5.690e-01

----------------------------Description of solution----------------------------

                                       pH  =   3.297      Charge balance
                                       pe  =   2.472      Adjusted to redox equilibrium
       Specific Conductance (uS/cm, 25 oC) = 200
                          Density (g/cm3)  =   1.00618
                               Volume (L)  =   1.04646
                        Activity of water  =   0.990
                           Ionic strength  =   5.175e-04
                       Mass of water (kg)  =   1.000e+00
                 Total alkalinity (eq/kg)  =   1.216e-09
                       Total CO2 (mol/kg)  =   5.690e-01
                      Temperature (deg C)  =  25.00
                           Pressure (atm)  = 18.68
                  Electrical balance (eq)  =  -1.216e-09
 Percent error, 100*(Cat-|An|)/(Cat+|An|)  =  -0.00
                               Iterations  =  38
                                  Total H  = 1.110124e+02
                                  Total O  = 5.664419e+01

----------------------------Distribution of species----------------------------

                                               Log       Log       Log    mole V
   Species          Molality    Activity  Molality  Activity     Gamma   cm3/mol

   H+              5.175e-04   5.047e-04    -3.286    -3.297    -0.011      0.00
   OH-             2.071e-11   2.018e-11   -10.684   -10.695    -0.011     -4.05
   H2O             5.551e+01   9.903e-01     1.744    -0.004     0.000     18.06
C(-4)         9.806e-23
   CH4             9.806e-23   9.807e-23   -22.009   -22.008     0.000     32.22
C(4)          5.690e-01
   CO2             5.685e-01   5.685e-01    -0.245    -0.245     0.000     29.17
   HCO3-           5.175e-04   5.043e-04    -3.286    -3.297    -0.011     24.72
   CO3-2           5.307e-11   4.790e-11   -10.275   -10.320    -0.045     -5.36
H(0)          4.023e-15
   H2              2.012e-15   2.012e-15   -14.696   -14.696     0.000     28.60
O(0)          0.000e+00
   O2              0.000e+00   0.000e+00   -63.012   -63.012     0.000     30.37

------------------------------Saturation indices-------------------------------

	Phase               SI** log IAP   log K(298 K,  19 atm)

	CH4(g)          -19.16    -22.01   -2.85  CH4
	CO2(g)            1.23     -0.25   -1.47  CO2	 Pressure  18.7 atm, phi 0.899
	H2(g)           -11.59    -14.70   -3.11  H2
	H2O(g)           -1.50     -0.00    1.50  H2O
	O2(g)           -60.11    -63.01   -2.90  O2

**For a gas, SI = log10(fugacity). For ideal gases, fugacity = pressure / 1 atm.
For a Peng-Robinson gas, fugacity = pressure * phi / 1 atm

Reaction step 3.

Using solution 1.	
Using gas phase 1.	
Using reaction 1.	

Reaction 1.	

	  4.000e-01 moles of the following reaction have been added:

	                 Relative
	Reactant            moles

	CO2                  1.00000

	                 Relative
	Element             moles
	C                    1.00000
	O                    2.00000

-----------------------------------Gas phase-----------------------------------

Total pressure: 23.72      atmospheres          (Peng-Robinson calculation)
    Gas volume:   1.00e+00 liters
  Molar volume:   8.85e-01 liters/mole
   P * Vm / RT:  0.85815  (Compressibility Factor Z) 

                                                        Moles in gas
                                            ----------------------------------
Component         log P           P    phi     Initial       Final       Delta

CO2(g)             1.38   2.372e+01  0.873   8.577e-01   1.130e+00   2.721e-01

-----------------------------Solution composition------------------------------

	Elements           Molality       Moles

	C                 6.969e-01   6.969e-01

----------------------------Description of solution----------------------------

                                       pH  =   3.252      Charge balance
                                       pe  =   2.154      Adjusted to redox equilibrium
       Specific Conductance (uS/cm, 25 oC) = 222
                          Density (g/cm3)  =   1.00822
                               Volume (L)  =   1.05614
                        Activity of water  =   0.988
                           Ionic strength  =   5.741e-04
                       Mass of water (kg)  =   1.000e+00
                 Total alkalinity (eq/kg)  =   1.216e-09
                       Total CO2 (mol/kg)  =   6.969e-01
                      Temperature (deg C)  =  25.00
                           Pressure (atm)  = 23.72
                  Electrical balance (eq)  =  -1.216e-09
 Percent error, 100*(Cat-|An|)/(Cat+|An|)  =  -0.00
                               Iterations  =  28
                                  Total H  = 1.110124e+02
                                  Total O  = 5.689995e+01

----------------------------Distribution of species----------------------------

                                               Log       Log       Log    mole V
   Species          Molality    Activity  Molality  Activity     Gamma   cm3/mol

   H+              5.741e-04   5.592e-04    -3.241    -3.252    -0.011      0.00
   OH-             1.876e-11   1.825e-11   -10.727   -10.739    -0.012     -4.03
   H2O             5.551e+01   9.881e-01     1.744    -0.005     0.000     18.05
C(-4)         9.454e-20
   CH4             9.454e-20   9.455e-20   -19.024   -19.024     0.000     32.22
C(4)          6.969e-01
   CO2             6.963e-01   6.964e-01    -0.157    -0.157     0.000     29.19
   HCO3-           5.741e-04   5.588e-04    -3.241    -3.253    -0.012     24.73
   CO3-2           5.368e-11   4.819e-11   -10.270   -10.317    -0.047     -5.30
H(0)          2.120e-14
   H2              1.060e-14   1.060e-14   -13.975   -13.975     0.000     28.59
O(0)          0.000e+00
   O2              0.000e+00   0.000e+00   -64.462   -64.462     0.000     30.37

------------------------------Saturation indices-------------------------------

	Phase               SI** log IAP   log K(298 K,  24 atm)

	CH4(g)          -16.17    -19.02   -2.86  CH4
	CO2(g)            1.32     -0.16   -1.47  CO2	 Pressure  23.7 atm, phi 0.873
	H2(g)           -10.86    -13.97   -3.11  H2
	H2O(g)           -1.50     -0.01    1.50  H2O
	O2(g)           -61.56    -64.46   -2.90  O2

**For a gas, SI = log10(fugacity). For ideal gases, fugacity = pressure / 1 atm.
For a Peng-Robinson gas, fugacity = pressure * phi / 1 atm

Reaction step 4.

Using solution 1.	
Using gas phase 1.	
Using reaction 1.	

Reaction 1.	

	  4.000e-01 moles of the following reaction have been added:

	                 Relative
	Reactant            moles

	CO2                  1.00000

	                 Relative
	Element             moles
	C                    1.00000
	O                    2.00000

-----------------------------------Gas phase-----------------------------------

Total pressure: 28.60      atmospheres          (Peng-Robinson calculation)
    Gas volume:   1.00e+00 liters
  Molar volume:   7.06e-01 liters/mole
   P * Vm / RT:  0.82553  (Compressibility Factor Z) 

                                                        Moles in gas
                                            ----------------------------------
Component         log P           P    phi     Initial       Final       Delta

CO2(g)             1.46   2.860e+01  0.847   1.130e+00   1.416e+00   2.860e-01

-----------------------------Solution composition------------------------------

	Elements           Molality       Moles

	C                 8.109e-01   8.109e-01

----------------------------Description of solution----------------------------

                                       pH  =   3.219      Charge balance
                                       pe  =   2.055      Adjusted to redox equilibrium
       Specific Conductance (uS/cm, 25 oC) = 240
                          Density (g/cm3)  =   1.01004
                               Volume (L)  =   1.06473
                        Activity of water  =   0.986
                           Ionic strength  =   6.207e-04
                       Mass of water (kg)  =   1.000e+00
                 Total alkalinity (eq/kg)  =   1.215e-09
                       Total CO2 (mol/kg)  =   8.109e-01
                      Temperature (deg C)  =  25.00
                           Pressure (atm)  = 28.60
                  Electrical balance (eq)  =  -1.215e-09
 Percent error, 100*(Cat-|An|)/(Cat+|An|)  =  -0.00
                               Iterations  =  27
                                  Total H  = 1.110124e+02
                                  Total O  = 5.712799e+01

----------------------------Distribution of species----------------------------

                                               Log       Log       Log    mole V
   Species          Molality    Activity  Molality  Activity     Gamma   cm3/mol

   H+              6.207e-04   6.041e-04    -3.207    -3.219    -0.012      0.00
   OH-             1.743e-11   1.694e-11   -10.759   -10.771    -0.012     -4.01
   H2O             5.551e+01   9.862e-01     1.744    -0.006     0.000     18.05
C(-4)         1.258e-18
   CH4             1.258e-18   1.258e-18   -17.900   -17.900     0.000     32.22
C(4)          8.109e-01
   CO2             8.103e-01   8.104e-01    -0.091    -0.091     0.000     29.21
   HCO3-           6.207e-04   6.036e-04    -3.207    -3.219    -0.012     24.73
   CO3-2           5.421e-11   4.847e-11   -10.266   -10.315    -0.049     -5.25
H(0)          3.881e-14
   H2              1.940e-14   1.941e-14   -13.712   -13.712     0.000     28.59
O(0)          0.000e+00
   O2              0.000e+00   0.000e+00   -64.993   -64.993     0.000     30.36

------------------------------Saturation indices-------------------------------

	Phase               SI** log IAP   log K(298 K,  29 atm)

	CH4(g)          -15.04    -17.90   -2.86  CH4
	CO2(g)            1.38     -0.09   -1.48  CO2	 Pressure  28.6 atm, phi 0.847
	H2(g)           -10.60    -13.71   -3.12  H2
	H2O(g)           -1.50     -0.01    1.49  H2O
	O2(g)           -62.09    -64.99   -2.91  O2

**For a gas, SI = log10(fugacity). For ideal gases, fugacity = pressure / 1 atm.
For a Peng-Robinson gas, fugacity = pressure * phi / 1 atm

Reaction step 5.

Using solution 1.	
Using gas phase 1.	
Using reaction 1.	

Reaction 1.	

	  4.000e-01 moles of the following reaction have been added:

	                 Relative
	Reactant            moles

	CO2                  1.00000

	                 Relative
	Element             moles
	C                    1.00000
	O                    2.00000

-----------------------------------Gas phase-----------------------------------

Total pressure: 33.27      atmospheres          (Peng-Robinson calculation)
    Gas volume:   1.00e+00 liters
  Molar volume:   5.83e-01 liters/mole
   P * Vm / RT:  0.79266  (Compressibility Factor Z) 

                                                        Moles in gas
                                            ----------------------------------
Component         log P           P    phi     Initial       Final       Delta

CO2(g)             1.52   3.327e+01  0.823   1.416e+00   1.715e+00   2.995e-01

-----------------------------Solution composition------------------------------

	Elements           Molality       Moles

	C                 9.114e-01   9.114e-01

----------------------------Description of solution----------------------------

                                       pH  =   3.193      Charge balance
                                       pe  =   2.193      Adjusted to redox equilibrium
       Specific Conductance (uS/cm, 25 oC) = 255
                          Density (g/cm3)  =   1.01165
                               Volume (L)  =   1.07228
                        Activity of water  =   0.984
                           Ionic strength  =   6.595e-04
                       Mass of water (kg)  =   1.000e+00
                 Total alkalinity (eq/kg)  =   1.215e-09
                       Total CO2 (mol/kg)  =   9.114e-01
                      Temperature (deg C)  =  25.00
                           Pressure (atm)  = 33.27
                  Electrical balance (eq)  =  -1.215e-09
 Percent error, 100*(Cat-|An|)/(Cat+|An|)  =  -0.00
                               Iterations  =  27
                                  Total H  = 1.110124e+02
                                  Total O  = 5.732895e+01

----------------------------Distribution of species----------------------------

                                               Log       Log       Log    mole V
   Species          Molality    Activity  Molality  Activity     Gamma   cm3/mol

   H+              6.595e-04   6.413e-04    -3.181    -3.193    -0.012      0.00
   OH-             1.647e-11   1.600e-11   -10.783   -10.796    -0.013     -3.99
   H2O             5.551e+01   9.845e-01     1.744    -0.007     0.000     18.04
C(-4)         1.779e-19
   CH4             1.779e-19   1.779e-19   -18.750   -18.750     0.000     32.22
C(4)          9.114e-01
   CO2             9.107e-01   9.109e-01    -0.041    -0.041     0.000     29.23
   HCO3-           6.595e-04   6.407e-04    -3.181    -3.193    -0.013     24.74
   CO3-2           5.470e-11   4.875e-11   -10.262   -10.312    -0.050     -5.20
H(0)          2.301e-14
   H2              1.150e-14   1.151e-14   -13.939   -13.939     0.000     28.59
O(0)          0.000e+00
   O2              0.000e+00   0.000e+00   -64.545   -64.545     0.000     30.35

------------------------------Saturation indices-------------------------------

	Phase               SI** log IAP   log K(298 K,  33 atm)

	CH4(g)          -15.89    -18.75   -2.86  CH4
	CO2(g)            1.44     -0.04   -1.48  CO2	 Pressure  33.3 atm, phi 0.823
	H2(g)           -10.82    -13.94   -3.12  H2
	H2O(g)           -1.50     -0.01    1.49  H2O
	O2(g)           -61.64    -64.54   -2.91  O2

**For a gas, SI = log10(fugacity). For ideal gases, fugacity = pressure / 1 atm.
For a Peng-Robinson gas, fugacity = pressure * phi / 1 atm

Reaction step 6.

Using solution 1.	
Using gas phase 1.	
Using reaction 1.	

Reaction 1.	

	  4.000e-01 moles of the following reaction have been added:

	                 Relative
	Reactant            moles

	CO2                  1.00000

	                 Relative
	Element             moles
	C                    1.00000
	O                    2.00000

-----------------------------------Gas phase-----------------------------------

Total pressure: 37.69      atmospheres          (Peng-Robinson calculation)
    Gas volume:   1.00e+00 liters
  Molar volume:   4.93e-01 liters/mole
   P * Vm / RT:  0.75970  (Compressibility Factor Z) 

                                                        Moles in gas
                                            ----------------------------------
Component         log P           P    phi     Initial       Final       Delta

CO2(g)             1.58   3.769e+01  0.801   1.715e+00   2.028e+00   3.125e-01

-----------------------------Solution composition------------------------------

	Elements           Molality       Moles

	C                 9.989e-01   9.988e-01

----------------------------Description of solution----------------------------

                                       pH  =   3.172      Charge balance
                                       pe  =   2.071      Adjusted to redox equilibrium
       Specific Conductance (uS/cm, 25 oC) = 267
                          Density (g/cm3)  =   1.01305
                               Volume (L)  =   1.07883
                        Activity of water  =   0.983
                           Ionic strength  =   6.917e-04
                       Mass of water (kg)  =   1.000e+00
                 Total alkalinity (eq/kg)  =   1.215e-09
                       Total CO2 (mol/kg)  =   9.989e-01
                      Temperature (deg C)  =  25.00
                           Pressure (atm)  = 37.69
                  Electrical balance (eq)  =  -1.215e-09
 Percent error, 100*(Cat-|An|)/(Cat+|An|)  =  -0.00
                               Iterations  =  26
                                  Total H  = 1.110124e+02
                                  Total O  = 5.750391e+01

----------------------------Distribution of species----------------------------

                                               Log       Log       Log    mole V
   Species          Molality    Activity  Molality  Activity     Gamma   cm3/mol

   H+              6.917e-04   6.722e-04    -3.160    -3.172    -0.012      0.00
   OH-             1.576e-11   1.530e-11   -10.802   -10.815    -0.013     -3.98
   H2O             5.551e+01   9.830e-01     1.744    -0.007     0.000     18.04
C(-4)         2.682e-18
   CH4             2.682e-18   2.683e-18   -17.571   -17.571     0.000     32.22
C(4)          9.989e-01
   CO2             9.982e-01   9.983e-01    -0.001    -0.001     0.000     29.25
   HCO3-           6.917e-04   6.716e-04    -3.160    -3.173    -0.013     24.74
   CO3-2           5.513e-11   4.901e-11   -10.259   -10.310    -0.051     -5.15
H(0)          4.413e-14
   H2              2.206e-14   2.207e-14   -13.656   -13.656     0.000     28.59
O(0)          0.000e+00
   O2              0.000e+00   0.000e+00   -65.116   -65.116     0.000     30.35

------------------------------Saturation indices-------------------------------

	Phase               SI** log IAP   log K(298 K,  38 atm)

	CH4(g)          -14.71    -17.57   -2.86  CH4
	CO2(g)            1.48     -0.00   -1.48  CO2	 Pressure  37.7 atm, phi 0.801
	H2(g)           -10.54    -13.66   -3.12  H2
	H2O(g)           -1.50     -0.01    1.49  H2O
	O2(g)           -62.20    -65.12   -2.91  O2

**For a gas, SI = log10(fugacity). For ideal gases, fugacity = pressure / 1 atm.
For a Peng-Robinson gas, fugacity = pressure * phi / 1 atm

Reaction step 7.

Using solution 1.	
Using gas phase 1.	
Using reaction 1.	

Reaction 1.	

	  4.000e-01 moles of the following reaction have been added:

	                 Relative
	Reactant            moles

	CO2                  1.00000

	                 Relative
	Element             moles
	C                    1.00000
	O                    2.00000

-----------------------------------Gas phase-----------------------------------

Total pressure: 41.84      atmospheres          (Peng-Robinson calculation)
    Gas volume:   1.00e+00 liters
  Molar volume:   4.25e-01 liters/mole
   P * Vm / RT:  0.72684  (Compressibility Factor Z) 

                                                        Moles in gas
                                            ----------------------------------
Component         log P           P    phi     Initial       Final       Delta

CO2(g)             1.62   4.184e+01  0.780   2.028e+00   2.353e+00   3.248e-01

-----------------------------Solution composition------------------------------

	Elements           Molality       Moles

	C                 1.074e+00   1.074e+00

----------------------------Description of solution----------------------------

                                       pH  =   3.156      Charge balance
                                       pe  =   2.033      Adjusted to redox equilibrium
       Specific Conductance (uS/cm, 25 oC) = 278
                          Density (g/cm3)  =   1.01427
                               Volume (L)  =   1.08444
                        Activity of water  =   0.982
                           Ionic strength  =   7.186e-04
                       Mass of water (kg)  =   1.000e+00
                 Total alkalinity (eq/kg)  =   1.215e-09
                       Total CO2 (mol/kg)  =   1.074e+00
                      Temperature (deg C)  =  25.00
                           Pressure (atm)  = 41.84
                  Electrical balance (eq)  =  -1.215e-09
 Percent error, 100*(Cat-|An|)/(Cat+|An|)  =  -0.00
                               Iterations  =  24
                                  Total H  = 1.110124e+02
                                  Total O  = 5.765431e+01

----------------------------Distribution of species----------------------------

                                               Log       Log       Log    mole V
   Species          Molality    Activity  Molality  Activity     Gamma   cm3/mol

   H+              7.186e-04   6.980e-04    -3.144    -3.156    -0.013      0.00
   OH-             1.523e-11   1.477e-11   -10.817   -10.831    -0.013     -3.96
   H2O             5.551e+01   9.817e-01     1.744    -0.008     0.000     18.04
C(-4)         7.889e-18
   CH4             7.889e-18   7.890e-18   -17.103   -17.103     0.000     32.22
C(4)          1.074e+00
   CO2             1.073e+00   1.074e+00     0.031     0.031     0.000     29.27
   HCO3-           7.186e-04   6.974e-04    -3.144    -3.157    -0.013     24.75
   CO3-2           5.553e-11   4.925e-11   -10.255   -10.308    -0.052     -5.10
H(0)          5.653e-14
   H2              2.827e-14   2.827e-14   -13.549   -13.549     0.000     28.59
O(0)          0.000e+00
   O2              0.000e+00   0.000e+00   -65.336   -65.336     0.000     30.34

------------------------------Saturation indices-------------------------------

	Phase               SI** log IAP   log K(298 K,  42 atm)

	CH4(g)          -14.24    -17.10   -2.87  CH4
	CO2(g)            1.51      0.03   -1.48  CO2	 Pressure  41.8 atm, phi 0.780
	H2(g)           -10.43    -13.55   -3.12  H2
	H2O(g)           -1.50     -0.01    1.49  H2O
	O2(g)           -62.42    -65.34   -2.91  O2

**For a gas, SI = log10(fugacity). For ideal gases, fugacity = pressure / 1 atm.
For a Peng-Robinson gas, fugacity = pressure * phi / 1 atm

Reaction step 8.

Using solution 1.	
Using gas phase 1.	
Using reaction 1.	

Reaction 1.	

	  4.000e-01 moles of the following reaction have been added:

	                 Relative
	Reactant            moles

	CO2                  1.00000

	                 Relative
	Element             moles
	C                    1.00000
	O                    2.00000

-----------------------------------Gas phase-----------------------------------

Total pressure: 45.67      atmospheres          (Peng-Robinson calculation)
    Gas volume:   1.00e+00 liters
  Molar volume:   3.72e-01 liters/mole
   P * Vm / RT:  0.69425  (Compressibility Factor Z) 

                                                        Moles in gas
                                            ----------------------------------
Component         log P           P    phi     Initial       Final       Delta

CO2(g)             1.66   4.567e+01  0.760   2.353e+00   2.689e+00   3.362e-01

-----------------------------Solution composition------------------------------

	Elements           Molality       Moles

	C                 1.138e+00   1.138e+00

----------------------------Description of solution----------------------------

                                       pH  =   3.143      Charge balance
                                       pe  =   2.011      Adjusted to redox equilibrium
       Specific Conductance (uS/cm, 25 oC) = 286
                          Density (g/cm3)  =   1.01530
                               Volume (L)  =   1.08918
                        Activity of water  =   0.981
                           Ionic strength  =   7.408e-04
                       Mass of water (kg)  =   1.000e+00
                 Total alkalinity (eq/kg)  =   1.215e-09
                       Total CO2 (mol/kg)  =   1.138e+00
                      Temperature (deg C)  =  25.00
                           Pressure (atm)  = 45.67
                  Electrical balance (eq)  =  -1.215e-09
 Percent error, 100*(Cat-|An|)/(Cat+|An|)  =  -0.00
                               Iterations  =  20
                                  Total H  = 1.110124e+02
                                  Total O  = 5.778193e+01

----------------------------Distribution of species----------------------------

                                               Log       Log       Log    mole V
   Species          Molality    Activity  Molality  Activity     Gamma   cm3/mol

   H+              7.408e-04   7.193e-04    -3.130    -3.143    -0.013      0.00
   OH-             1.482e-11   1.436e-11   -10.829   -10.843    -0.013     -3.95
   H2O             5.551e+01   9.806e-01     1.744    -0.008     0.000     18.03
C(-4)         1.595e-17
   CH4             1.595e-17   1.595e-17   -16.797   -16.797     0.000     32.22
C(4)          1.138e+00
   CO2             1.137e+00   1.137e+00     0.056     0.056     0.000     29.28
   HCO3-           7.408e-04   7.186e-04    -3.130    -3.143    -0.013     24.75
   CO3-2           5.588e-11   4.948e-11   -10.253   -10.306    -0.053     -5.06
H(0)          6.621e-14
   H2              3.311e-14   3.311e-14   -13.480   -13.480     0.000     28.58
O(0)          0.000e+00
   O2              0.000e+00   0.000e+00   -65.478   -65.478     0.000     30.34

------------------------------Saturation indices-------------------------------

	Phase               SI** log IAP   log K(298 K,  46 atm)

	CH4(g)          -13.93    -16.80   -2.87  CH4
	CO2(g)            1.54      0.06   -1.48  CO2	 Pressure  45.7 atm, phi 0.760
	H2(g)           -10.36    -13.48   -3.12  H2
	H2O(g)           -1.50     -0.01    1.49  H2O
	O2(g)           -62.56    -65.48   -2.92  O2

**For a gas, SI = log10(fugacity). For ideal gases, fugacity = pressure / 1 atm.
For a Peng-Robinson gas, fugacity = pressure * phi / 1 atm

Reaction step 9.

Using solution 1.	
Using gas phase 1.	
Using reaction 1.	

Reaction 1.	

	  4.000e-01 moles of the following reaction have been added:

	                 Relative
	Reactant            moles

	CO2                  1.00000

	                 Relative
	Element             moles
	C                    1.00000
	O                    2.00000

-----------------------------------Gas phase-----------------------------------

Total pressure: 49.17      atmospheres          (Peng-Robinson calculation)
    Gas volume:   1.00e+00 liters
  Molar volume:   3.29e-01 liters/mole
   P * Vm / RT:  0.66211  (Compressibility Factor Z) 

                                                        Moles in gas
                                            ----------------------------------
Component         log P           P    phi     Initial       Final       Delta

CO2(g)             1.69   4.917e+01  0.742   2.689e+00   3.035e+00   3.466e-01

-----------------------------Solution composition------------------------------

	Elements           Molality       Moles

	C                 1.191e+00   1.191e+00

----------------------------Description of solution----------------------------

                                       pH  =   3.133      Charge balance
                                       pe  =   1.952      Adjusted to redox equilibrium
       Specific Conductance (uS/cm, 25 oC) = 293
                          Density (g/cm3)  =   1.01618
                               Volume (L)  =   1.09313
                        Activity of water  =   0.980
                           Ionic strength  =   7.592e-04
                       Mass of water (kg)  =   1.000e+00
                 Total alkalinity (eq/kg)  =   1.215e-09
                       Total CO2 (mol/kg)  =   1.191e+00
                      Temperature (deg C)  =  25.00
                           Pressure (atm)  = 49.17
                  Electrical balance (eq)  =  -1.215e-09
 Percent error, 100*(Cat-|An|)/(Cat+|An|)  =  -0.00
                               Iterations  =  23
                                  Total H  = 1.110124e+02
                                  Total O  = 5.788874e+01

----------------------------Distribution of species----------------------------

                                               Log       Log       Log    mole V
   Species          Molality    Activity  Molality  Activity     Gamma   cm3/mol

   H+              7.592e-04   7.369e-04    -3.120    -3.133    -0.013      0.00
   OH-             1.450e-11   1.405e-11   -10.839   -10.852    -0.014     -3.93
   H2O             5.551e+01   9.797e-01     1.744    -0.009     0.000     18.03
C(-4)         5.906e-17
   CH4             5.906e-17   5.907e-17   -16.229   -16.229     0.000     32.22
C(4)          1.191e+00
   CO2             1.191e+00   1.191e+00     0.076     0.076     0.000     29.30
   HCO3-           7.592e-04   7.362e-04    -3.120    -3.133    -0.013     24.76
   CO3-2           5.619e-11   4.968e-11   -10.250   -10.304    -0.053     -5.03
H(0)          9.052e-14
   H2              4.526e-14   4.527e-14   -13.344   -13.344     0.000     28.58
O(0)          0.000e+00
   O2              0.000e+00   0.000e+00   -65.753   -65.753     0.000     30.33

------------------------------Saturation indices-------------------------------

	Phase               SI** log IAP   log K(298 K,  49 atm)

	CH4(g)          -13.36    -16.23   -2.87  CH4
	CO2(g)            1.56      0.08   -1.49  CO2	 Pressure  49.2 atm, phi 0.742
	H2(g)           -10.22    -13.34   -3.13  H2
	H2O(g)           -1.50     -0.01    1.49  H2O
	O2(g)           -62.84    -65.75   -2.92  O2

**For a gas, SI = log10(fugacity). For ideal gases, fugacity = pressure / 1 atm.
For a Peng-Robinson gas, fugacity = pressure * phi / 1 atm

Reaction step 10.

Using solution 1.	
Using gas phase 1.	
Using reaction 1.	

Reaction 1.	

	  4.000e-01 moles of the following reaction have been added:

	                 Relative
	Reactant            moles

	CO2                  1.00000

	                 Relative
	Element             moles
	C                    1.00000
	O                    2.00000

-----------------------------------Gas phase-----------------------------------

Total pressure: 52.32      atmospheres          (Peng-Robinson calculation)
    Gas volume:   1.00e+00 liters
  Molar volume:   2.95e-01 liters/mole
   P * Vm / RT:  0.63055  (Compressibility Factor Z) 

                                                        Moles in gas
                                            ----------------------------------
Component         log P           P    phi     Initial       Final       Delta

CO2(g)             1.72   5.232e+01  0.726   3.035e+00   3.391e+00   3.559e-01

-----------------------------Solution composition------------------------------

	Elements           Molality       Moles

	C                 1.235e+00   1.235e+00

----------------------------Description of solution----------------------------

                                       pH  =   3.124      Charge balance
                                       pe  =   2.006      Adjusted to redox equilibrium
       Specific Conductance (uS/cm, 25 oC) = 299
                          Density (g/cm3)  =   1.01690
                               Volume (L)  =   1.09637
                        Activity of water  =   0.979
                           Ionic strength  =   7.741e-04
                       Mass of water (kg)  =   1.000e+00
                 Total alkalinity (eq/kg)  =   1.215e-09
                       Total CO2 (mol/kg)  =   1.235e+00
                      Temperature (deg C)  =  25.00
                           Pressure (atm)  = 52.32
                  Electrical balance (eq)  =  -1.215e-09
 Percent error, 100*(Cat-|An|)/(Cat+|An|)  =  -0.00
                               Iterations  =  25
                                  Total H  = 1.110124e+02
                                  Total O  = 5.797685e+01

----------------------------Distribution of species----------------------------

                                               Log       Log       Log    mole V
   Species          Molality    Activity  Molality  Activity     Gamma   cm3/mol

   H+              7.741e-04   7.512e-04    -3.111    -3.124    -0.013      0.00
   OH-             1.426e-11   1.381e-11   -10.846   -10.860    -0.014     -3.92
   H2O             5.551e+01   9.790e-01     1.744    -0.009     0.000     18.03
C(-4)         2.667e-17
   CH4             2.667e-17   2.667e-17   -16.574   -16.574     0.000     32.22
C(4)          1.235e+00
   CO2             1.235e+00   1.235e+00     0.092     0.092     0.000     29.31
   HCO3-           7.741e-04   7.505e-04    -3.111    -3.125    -0.013     24.76
   CO3-2           5.647e-11   4.987e-11   -10.248   -10.302    -0.054     -4.99
H(0)          7.332e-14
   H2              3.666e-14   3.667e-14   -13.436   -13.436     0.000     28.58
O(0)          0.000e+00
   O2              0.000e+00   0.000e+00   -65.574   -65.574     0.000     30.33

------------------------------Saturation indices-------------------------------

	Phase               SI** log IAP   log K(298 K,  52 atm)

	CH4(g)          -13.70    -16.57   -2.87  CH4
	CO2(g)            1.58      0.09   -1.49  CO2	 Pressure  52.3 atm, phi 0.726
	H2(g)           -10.31    -13.44   -3.13  H2
	H2O(g)           -1.50     -0.01    1.49  H2O
	O2(g)           -62.65    -65.57   -2.92  O2

**For a gas, SI = log10(fugacity). For ideal gases, fugacity = pressure / 1 atm.
For a Peng-Robinson gas, fugacity = pressure * phi / 1 atm

Reaction step 11.

Using solution 1.	
Using gas phase 1.	
Using reaction 1.	

Reaction 1.	

	  4.000e-01 moles of the following reaction have been added:

	                 Relative
	Reactant            moles

	CO2                  1.00000

	                 Relative
	Element             moles
	C                    1.00000
	O                    2.00000

-----------------------------------Gas phase-----------------------------------

Total pressure: 55.11      atmospheres          (Peng-Robinson calculation)
    Gas volume:   1.00e+00 liters
  Molar volume:   2.66e-01 liters/mole
   P * Vm / RT:  0.59972  (Compressibility Factor Z) 

                                                        Moles in gas
                                            ----------------------------------
Component         log P           P    phi     Initial       Final       Delta

CO2(g)             1.74   5.511e+01  0.712   3.391e+00   3.756e+00   3.642e-01

-----------------------------Solution composition------------------------------

	Elements           Molality       Moles

	C                 1.271e+00   1.271e+00

----------------------------Description of solution----------------------------

                                       pH  =   3.118      Charge balance
                                       pe  =   1.975      Adjusted to redox equilibrium
       Specific Conductance (uS/cm, 25 oC) = 304
                          Density (g/cm3)  =   1.01750
                               Volume (L)  =   1.09900
                        Activity of water  =   0.978
                           Ionic strength  =   7.862e-04
                       Mass of water (kg)  =   1.000e+00
                 Total alkalinity (eq/kg)  =   1.215e-09
                       Total CO2 (mol/kg)  =   1.271e+00
                      Temperature (deg C)  =  25.00
                           Pressure (atm)  = 55.11
                  Electrical balance (eq)  =  -1.215e-09
 Percent error, 100*(Cat-|An|)/(Cat+|An|)  =  -0.00
                               Iterations  =  25
                                  Total H  = 1.110124e+02
                                  Total O  = 5.804844e+01

----------------------------Distribution of species----------------------------

                                               Log       Log       Log    mole V
   Species          Molality    Activity  Molality  Activity     Gamma   cm3/mol

   H+              7.862e-04   7.627e-04    -3.104    -3.118    -0.013      0.00
   OH-             1.407e-11   1.363e-11   -10.852   -10.866    -0.014     -3.91
   H2O             5.551e+01   9.784e-01     1.744    -0.009     0.000     18.03
C(-4)         5.466e-17
   CH4             5.466e-17   5.467e-17   -16.262   -16.262     0.000     32.22
C(4)          1.271e+00
   CO2             1.270e+00   1.271e+00     0.104     0.104     0.000     29.32
   HCO3-           7.862e-04   7.620e-04    -3.104    -3.118    -0.014     24.76
   CO3-2           5.671e-11   5.004e-11   -10.246   -10.301    -0.054     -4.96
H(0)          8.689e-14
   H2              4.345e-14   4.345e-14   -13.362   -13.362     0.000     28.58
O(0)          0.000e+00
   O2              0.000e+00   0.000e+00   -65.725   -65.724     0.000     30.32

------------------------------Saturation indices-------------------------------

	Phase               SI** log IAP   log K(298 K,  55 atm)

	CH4(g)          -13.39    -16.26   -2.87  CH4
	CO2(g)            1.59      0.10   -1.49  CO2	 Pressure  55.1 atm, phi 0.712
	H2(g)           -10.23    -13.36   -3.13  H2
	H2O(g)           -1.50     -0.01    1.49  H2O
	O2(g)           -62.80    -65.72   -2.92  O2

**For a gas, SI = log10(fugacity). For ideal gases, fugacity = pressure / 1 atm.
For a Peng-Robinson gas, fugacity = pressure * phi / 1 atm

Reaction step 12.

Using solution 1.	
Using gas phase 1.	
Using reaction 1.	

Reaction 1.	

	  2.000e+00 moles of the following reaction have been added:

	                 Relative
	Reactant            moles

	CO2                  1.00000

	                 Relative
	Element             moles
	C                    1.00000
	O                    2.00000

-----------------------------------Gas phase-----------------------------------

Total pressure: 63.75      atmospheres          (Peng-Robinson calculation)
    Gas volume:   1.00e+00 liters
  Molar volume:   1.77e-01 liters/mole
   P * Vm / RT:  0.45992  (Compressibility Factor Z) 

                                                        Moles in gas
                                            ----------------------------------
Component         log P           P    phi     Initial       Final       Delta

CO2(g)             1.80   6.375e+01  0.666   3.756e+00   5.666e+00   1.910e+00

-----------------------------Solution composition------------------------------

	Elements           Molality       Moles

	C                 1.361e+00   1.361e+00

----------------------------Description of solution----------------------------

                                       pH  =   3.101      Charge balance
                                       pe  =   2.019      Adjusted to redox equilibrium
       Specific Conductance (uS/cm, 25 oC) = 315
                          Density (g/cm3)  =   1.01906
                               Volume (L)  =   1.10553
                        Activity of water  =   0.977
                           Ionic strength  =   8.166e-04
                       Mass of water (kg)  =   1.000e+00
                 Total alkalinity (eq/kg)  =   1.215e-09
                       Total CO2 (mol/kg)  =   1.361e+00
                      Temperature (deg C)  =  25.00
                           Pressure (atm)  = 63.75
                  Electrical balance (eq)  =  -1.215e-09
 Percent error, 100*(Cat-|An|)/(Cat+|An|)  =  -0.00
                               Iterations  =  40
                                  Total H  = 1.110124e+02
                                  Total O  = 5.822823e+01

----------------------------Distribution of species----------------------------

                                               Log       Log       Log    mole V
   Species          Molality    Activity  Molality  Activity     Gamma   cm3/mol

   H+              8.166e-04   7.918e-04    -3.088    -3.101    -0.013      0.00
   OH-             1.364e-11   1.321e-11   -10.865   -10.879    -0.014     -3.88
   H2O             5.551e+01   9.768e-01     1.744    -0.010     0.000     18.02
C(-4)         3.442e-17
   CH4             3.442e-17   3.443e-17   -16.463   -16.463     0.000     32.22
C(4)          1.361e+00
   CO2             1.360e+00   1.360e+00     0.134     0.134     0.000     29.36
   HCO3-           8.166e-04   7.910e-04    -3.088    -3.102    -0.014     24.77
   CO3-2           5.742e-11   5.055e-11   -10.241   -10.296    -0.055     -4.87
H(0)          7.553e-14
   H2              3.776e-14   3.777e-14   -13.423   -13.423     0.000     28.58
O(0)          0.000e+00
   O2              0.000e+00   0.000e+00   -65.612   -65.612     0.000     30.31

------------------------------Saturation indices-------------------------------

	Phase               SI** log IAP   log K(298 K,  64 atm)

	CH4(g)          -13.58    -16.46   -2.88  CH4
	CO2(g)            1.63      0.13   -1.49  CO2	 Pressure  63.8 atm, phi 0.666
	H2(g)           -10.29    -13.42   -3.13  H2
	H2O(g)           -1.49     -0.01    1.48  H2O
	O2(g)           -62.69    -65.61   -2.93  O2

**For a gas, SI = log10(fugacity). For ideal gases, fugacity = pressure / 1 atm.
For a Peng-Robinson gas, fugacity = pressure * phi / 1 atm

Reaction step 13.

Using solution 1.	
Using gas phase 1.	
Using reaction 1.	

Reaction 1.	

	  2.000e+00 moles of the following reaction have been added:

	                 Relative
	Reactant            moles

	CO2                  1.00000

	                 Relative
	Element             moles
	C                    1.00000
	O                    2.00000

-----------------------------------Gas phase-----------------------------------

Total pressure: 65.36      atmospheres          (Peng-Robinson calculation)
    Gas volume:   1.00e+00 liters
  Molar volume:   1.31e-01 liters/mole
   P * Vm / RT:  0.34901  (Compressibility Factor Z) 

                                                        Moles in gas
                                            ----------------------------------
Component         log P           P    phi     Initial       Final       Delta

CO2(g)             1.82   6.536e+01  0.656   5.666e+00   7.654e+00   1.988e+00

-----------------------------Solution composition------------------------------

	Elements           Molality       Moles

	C                 1.373e+00   1.373e+00

----------------------------Description of solution----------------------------

                                       pH  =   3.099      Charge balance
                                       pe  =   2.051      Adjusted to redox equilibrium
       Specific Conductance (uS/cm, 25 oC) = 317
                          Density (g/cm3)  =   1.01928
                               Volume (L)  =   1.10638
                        Activity of water  =   0.977
                           Ionic strength  =   8.208e-04
                       Mass of water (kg)  =   1.000e+00
                 Total alkalinity (eq/kg)  =   1.215e-09
                       Total CO2 (mol/kg)  =   1.373e+00
                      Temperature (deg C)  =  25.00
                           Pressure (atm)  = 65.36
                  Electrical balance (eq)  =  -1.215e-09
 Percent error, 100*(Cat-|An|)/(Cat+|An|)  =  -0.00
                               Iterations  =  48
                                  Total H  = 1.110124e+02
                                  Total O  = 5.825212e+01

----------------------------Distribution of species----------------------------

                                               Log       Log       Log    mole V
   Species          Molality    Activity  Molality  Activity     Gamma   cm3/mol

   H+              8.208e-04   7.958e-04    -3.086    -3.099    -0.013      0.00
   OH-             1.359e-11   1.316e-11   -10.867   -10.881    -0.014     -3.87
   H2O             5.551e+01   9.766e-01     1.744    -0.010     0.000     18.02
C(-4)         1.993e-17
   CH4             1.993e-17   1.993e-17   -16.701   -16.700     0.000     32.22
C(4)          1.373e+00
   CO2             1.372e+00   1.372e+00     0.137     0.137     0.000     29.36
   HCO3-           8.208e-04   7.950e-04    -3.086    -3.100    -0.014     24.77
   CO3-2           5.755e-11   5.065e-11   -10.240   -10.295    -0.055     -4.86
H(0)          6.565e-14
   H2              3.282e-14   3.283e-14   -13.484   -13.484     0.000     28.58
O(0)          0.000e+00
   O2              0.000e+00   0.000e+00   -65.492   -65.492     0.000     30.31

------------------------------Saturation indices-------------------------------

	Phase               SI** log IAP   log K(298 K,  65 atm)

	CH4(g)          -13.82    -16.70   -2.88  CH4
	CO2(g)            1.63      0.14   -1.49  CO2	 Pressure  65.4 atm, phi 0.656
	H2(g)           -10.35    -13.48   -3.13  H2
	H2O(g)           -1.49     -0.01    1.48  H2O
	O2(g)           -62.56    -65.49   -2.93  O2

**For a gas, SI = log10(fugacity). For ideal gases, fugacity = pressure / 1 atm.
For a Peng-Robinson gas, fugacity = pressure * phi / 1 atm

Reaction step 14.

Using solution 1.	
Using gas phase 1.	
Using reaction 1.	

Reaction 1.	

	  2.000e+00 moles of the following reaction have been added:

	                 Relative
	Reactant            moles

	CO2                  1.00000

	                 Relative
	Element             moles
	C                    1.00000
	O                    2.00000

-----------------------------------Gas phase-----------------------------------

Total pressure: 65.36      atmospheres          (Peng-Robinson calculation)
    Gas volume:   1.00e+00 liters
  Molar volume:   1.04e-01 liters/mole
   P * Vm / RT:  0.27666  (Compressibility Factor Z) 

                                                        Moles in gas
                                            ----------------------------------
Component         log P           P    phi     Initial       Final       Delta

CO2(g)             1.82   6.536e+01  0.656   7.654e+00   9.655e+00   2.002e+00

-----------------------------Solution composition------------------------------

	Elements           Molality       Moles

	C                 1.371e+00   1.371e+00

----------------------------Description of solution----------------------------

                                       pH  =   3.099      Charge balance
                                       pe  =   2.111      Adjusted to redox equilibrium
       Specific Conductance (uS/cm, 25 oC) = 317
                          Density (g/cm3)  =   1.01926
                               Volume (L)  =   1.10625
                        Activity of water  =   0.977
                           Ionic strength  =   8.203e-04
                       Mass of water (kg)  =   1.000e+00
                 Total alkalinity (eq/kg)  =   1.215e-09
                       Total CO2 (mol/kg)  =   1.371e+00
                      Temperature (deg C)  =  25.00
                           Pressure (atm)  = 65.36
                  Electrical balance (eq)  =  -1.215e-09
 Percent error, 100*(Cat-|An|)/(Cat+|An|)  =  -0.00
                               Iterations  =  50
                                  Total H  = 1.110124e+02
                                  Total O  = 5.824887e+01

----------------------------Distribution of species----------------------------

                                               Log       Log       Log    mole V
   Species          Molality    Activity  Molality  Activity     Gamma   cm3/mol

   H+              8.203e-04   7.953e-04    -3.086    -3.099    -0.013      0.00
   OH-             1.360e-11   1.317e-11   -10.866   -10.881    -0.014     -3.87
   H2O             5.551e+01   9.767e-01     1.744    -0.010     0.000     18.02
C(-4)         6.624e-18
   CH4             6.624e-18   6.625e-18   -17.179   -17.179     0.000     32.22
C(4)          1.371e+00
   CO2             1.371e+00   1.371e+00     0.137     0.137     0.000     29.36
   HCO3-           8.203e-04   7.946e-04    -3.086    -3.100    -0.014     24.77
   CO3-2           5.754e-11   5.065e-11   -10.240   -10.295    -0.055     -4.86
H(0)          4.986e-14
   H2              2.493e-14   2.494e-14   -13.603   -13.603     0.000     28.58
O(0)          0.000e+00
   O2              0.000e+00   0.000e+00   -65.253   -65.253     0.000     30.31

------------------------------Saturation indices-------------------------------

	Phase               SI** log IAP   log K(298 K,  65 atm)

	CH4(g)          -14.30    -17.18   -2.88  CH4
	CO2(g)            1.63      0.14   -1.49  CO2	 Pressure  65.4 atm, phi 0.656
	H2(g)           -10.47    -13.60   -3.13  H2
	H2O(g)           -1.49     -0.01    1.48  H2O
	O2(g)           -62.33    -65.25   -2.93  O2

**For a gas, SI = log10(fugacity). For ideal gases, fugacity = pressure / 1 atm.
For a Peng-Robinson gas, fugacity = pressure * phi / 1 atm

Reaction step 15.

Using solution 1.	
Using gas phase 1.	
Using reaction 1.	

Reaction 1.	

	  2.000e+00 moles of the following reaction have been added:

	                 Relative
	Reactant            moles

	CO2                  1.00000

	                 Relative
	Element             moles
	C                    1.00000
	O                    2.00000

-----------------------------------Gas phase-----------------------------------

Total pressure: 65.36      atmospheres          (Peng-Robinson calculation)
    Gas volume:   1.00e+00 liters
  Molar volume:   8.58e-02 liters/mole
   P * Vm / RT:  0.22911  (Compressibility Factor Z) 

                                                        Moles in gas
                                            ----------------------------------
Component         log P           P    phi     Initial       Final       Delta

CO2(g)             1.82   6.536e+01  0.654   9.655e+00   1.166e+01   2.004e+00

-----------------------------Solution composition------------------------------

	Elements           Molality       Moles

	C                 1.368e+00   1.367e+00

----------------------------Description of solution----------------------------

                                       pH  =   3.100      Charge balance
                                       pe  =   2.104      Adjusted to redox equilibrium
       Specific Conductance (uS/cm, 25 oC) = 316
                          Density (g/cm3)  =   1.01921
                               Volume (L)  =   1.10596
                        Activity of water  =   0.977
                           Ionic strength  =   8.192e-04
                       Mass of water (kg)  =   1.000e+00
                 Total alkalinity (eq/kg)  =   1.215e-09
                       Total CO2 (mol/kg)  =   1.368e+00
                      Temperature (deg C)  =  25.00
                           Pressure (atm)  = 65.36
                  Electrical balance (eq)  =  -1.215e-09
 Percent error, 100*(Cat-|An|)/(Cat+|An|)  =  -0.00
                               Iterations  =  50
                                  Total H  = 1.110124e+02
                                  Total O  = 5.824121e+01

----------------------------Distribution of species----------------------------

                                               Log       Log       Log    mole V
   Species          Molality    Activity  Molality  Activity     Gamma   cm3/mol

   H+              8.192e-04   7.943e-04    -3.087    -3.100    -0.013      0.00
   OH-             1.362e-11   1.318e-11   -10.866   -10.880    -0.014     -3.87
   H2O             5.551e+01   9.767e-01     1.744    -0.010     0.000     18.02
C(-4)         7.414e-18
   CH4             7.414e-18   7.416e-18   -17.130   -17.130     0.000     32.22
C(4)          1.368e+00
   CO2             1.367e+00   1.367e+00     0.136     0.136     0.000     29.36
   HCO3-           8.192e-04   7.935e-04    -3.087    -3.100    -0.014     24.77
   CO3-2           5.754e-11   5.065e-11   -10.240   -10.295    -0.055     -4.86
H(0)          5.133e-14
   H2              2.566e-14   2.567e-14   -13.591   -13.591     0.000     28.58
O(0)          0.000e+00
   O2              0.000e+00   0.000e+00   -65.278   -65.278     0.000     30.31

------------------------------Saturation indices-------------------------------

	Phase               SI** log IAP   log K(298 K,  65 atm)

	CH4(g)          -14.25    -17.13   -2.88  CH4
	CO2(g)            1.63      0.14   -1.49  CO2	 Pressure  65.4 atm, phi 0.654
	H2(g)           -10.46    -13.59   -3.13  H2
	H2O(g)           -1.49     -0.01    1.48  H2O
	O2(g)           -62.35    -65.28   -2.93  O2

**For a gas, SI = log10(fugacity). For ideal gases, fugacity = pressure / 1 atm.
For a Peng-Robinson gas, fugacity = pressure * phi / 1 atm

Reaction step 16.

Using solution 1.	
Using gas phase 1.	
Using reaction 1.	

Reaction 1.	

	  2.000e+00 moles of the following reaction have been added:

	                 Relative
	Reactant            moles

	CO2                  1.00000

	                 Relative
	Element             moles
	C                    1.00000
	O                    2.00000

-----------------------------------Gas phase-----------------------------------

Total pressure: 65.36      atmospheres          (Peng-Robinson calculation)
    Gas volume:   1.00e+00 liters
  Molar volume:   7.32e-02 liters/mole
   P * Vm / RT:  0.19552  (Compressibility Factor Z) 

                                                        Moles in gas
                                            ----------------------------------
Component         log P           P    phi     Initial       Final       Delta

CO2(g)             1.82   6.536e+01  0.652   1.166e+01   1.366e+01   2.003e+00

-----------------------------Solution composition------------------------------

	Elements           Molality       Moles

	C                 1.364e+00   1.364e+00

----------------------------Description of solution----------------------------

                                       pH  =   3.101      Charge balance
                                       pe  =   2.192      Adjusted to redox equilibrium
       Specific Conductance (uS/cm, 25 oC) = 316
                          Density (g/cm3)  =   1.01916
                               Volume (L)  =   1.10570
                        Activity of water  =   0.977
                           Ionic strength  =   8.182e-04
                       Mass of water (kg)  =   1.000e+00
                 Total alkalinity (eq/kg)  =   1.215e-09
                       Total CO2 (mol/kg)  =   1.364e+00
                      Temperature (deg C)  =  25.00
                           Pressure (atm)  = 65.36
                  Electrical balance (eq)  =  -1.215e-09
 Percent error, 100*(Cat-|An|)/(Cat+|An|)  =  -0.00
                               Iterations  =  50
                                  Total H  = 1.110124e+02
                                  Total O  = 5.823440e+01

----------------------------Distribution of species----------------------------

                                               Log       Log       Log    mole V
   Species          Molality    Activity  Molality  Activity     Gamma   cm3/mol

   H+              8.182e-04   7.933e-04    -3.087    -3.101    -0.013      0.00
   OH-             1.364e-11   1.320e-11   -10.865   -10.879    -0.014     -3.87
   H2O             5.551e+01   9.768e-01     1.744    -0.010     0.000     18.02
C(-4)         1.442e-18
   CH4             1.442e-18   1.443e-18   -17.841   -17.841     0.000     32.22
C(4)          1.364e+00
   CO2             1.363e+00   1.364e+00     0.135     0.135     0.000     29.36
   HCO3-           8.182e-04   7.925e-04    -3.087    -3.101    -0.014     24.77
   CO3-2           5.753e-11   5.065e-11   -10.240   -10.295    -0.055     -4.86
H(0)          3.411e-14
   H2              1.705e-14   1.706e-14   -13.768   -13.768     0.000     28.58
O(0)          0.000e+00
   O2              0.000e+00   0.000e+00   -64.923   -64.923     0.000     30.31

------------------------------Saturation indices-------------------------------

	Phase               SI** log IAP   log K(298 K,  65 atm)

	CH4(g)          -14.96    -17.84   -2.88  CH4
	CO2(g)            1.63      0.13   -1.49  CO2	 Pressure  65.4 atm, phi 0.652
	H2(g)           -10.63    -13.77   -3.13  H2
	H2O(g)           -1.49     -0.01    1.48  H2O
	O2(g)           -62.00    -64.92   -2.93  O2

**For a gas, SI = log10(fugacity). For ideal gases, fugacity = pressure / 1 atm.
For a Peng-Robinson gas, fugacity = pressure * phi / 1 atm

Reaction step 17.

Using solution 1.	
Using gas phase 1.	
Using reaction 1.	

Reaction 1.	

	  2.000e+00 moles of the following reaction have been added:

	                 Relative
	Reactant            moles

	CO2                  1.00000

	                 Relative
	Element             moles
	C                    1.00000
	O                    2.00000

-----------------------------------Gas phase-----------------------------------

Total pressure: 71.85      atmospheres          (Peng-Robinson calculation)
    Gas volume:   1.00e+00 liters
  Molar volume:   6.39e-02 liters/mole
   P * Vm / RT:  0.18764  (Compressibility Factor Z) 

                                                        Moles in gas
                                            ----------------------------------
Component         log P           P    phi     Initial       Final       Delta

CO2(g)             1.86   7.185e+01  0.603   1.366e+01   1.565e+01   1.987e+00

-----------------------------Solution composition------------------------------

	Elements           Molality       Moles

	C                 1.377e+00   1.377e+00

----------------------------Description of solution----------------------------

                                       pH  =   3.097      Charge balance
                                       pe  =   2.167      Adjusted to redox equilibrium
       Specific Conductance (uS/cm, 25 oC) = 318
                          Density (g/cm3)  =   1.01958
                               Volume (L)  =   1.10639
                        Activity of water  =   0.977
                           Ionic strength  =   8.244e-04
                       Mass of water (kg)  =   1.000e+00
                 Total alkalinity (eq/kg)  =   1.215e-09
                       Total CO2 (mol/kg)  =   1.377e+00
                      Temperature (deg C)  =  25.00
                           Pressure (atm)  = 71.85
                  Electrical balance (eq)  =  -1.215e-09
 Percent error, 100*(Cat-|An|)/(Cat+|An|)  =  -0.00
                               Iterations  =  39
                                  Total H  = 1.110124e+02
                                  Total O  = 5.825959e+01

----------------------------Distribution of species----------------------------

                                               Log       Log       Log    mole V
   Species          Molality    Activity  Molality  Activity     Gamma   cm3/mol

   H+              8.244e-04   7.993e-04    -3.084    -3.097    -0.013      0.00
   OH-             1.361e-11   1.318e-11   -10.866   -10.880    -0.014     -3.85
   H2O             5.551e+01   9.766e-01     1.744    -0.010     0.000     18.01
C(-4)         2.422e-18
   CH4             2.422e-18   2.422e-18   -17.616   -17.616     0.000     32.22
C(4)          1.377e+00
   CO2             1.376e+00   1.376e+00     0.139     0.139     0.000     29.39
   HCO3-           8.244e-04   7.985e-04    -3.084    -3.098    -0.014     24.78
   CO3-2           5.800e-11   5.104e-11   -10.237   -10.292    -0.056     -4.79
H(0)          3.854e-14
   H2              1.927e-14   1.927e-14   -13.715   -13.715     0.000     28.57
O(0)          0.000e+00
   O2              0.000e+00   0.000e+00   -65.035   -65.035     0.000     30.30

------------------------------Saturation indices-------------------------------

	Phase               SI** log IAP   log K(298 K,  72 atm)

	CH4(g)          -14.73    -17.62   -2.88  CH4
	CO2(g)            1.64      0.14   -1.50  CO2	 Pressure  71.8 atm, phi 0.603
	H2(g)           -10.58    -13.72   -3.14  H2
	H2O(g)           -1.49     -0.01    1.48  H2O
	O2(g)           -62.10    -65.04   -2.93  O2

**For a gas, SI = log10(fugacity). For ideal gases, fugacity = pressure / 1 atm.
For a Peng-Robinson gas, fugacity = pressure * phi / 1 atm

Reaction step 18.

Using solution 1.	
Using gas phase 1.	
Using reaction 1.	

Reaction 1.	

	  2.000e+00 moles of the following reaction have been added:

	                 Relative
	Reactant            moles

	CO2                  1.00000

	                 Relative
	Element             moles
	C                    1.00000
	O                    2.00000

-----------------------------------Gas phase-----------------------------------

Total pressure: 96.22      atmospheres          (Peng-Robinson calculation)
    Gas volume:   1.00e+00 liters
  Molar volume:   5.68e-02 liters/mole
   P * Vm / RT:  0.22334  (Compressibility Factor Z) 

                                                        Moles in gas
                                            ----------------------------------
Component         log P           P    phi     Initial       Final       Delta

CO2(g)             1.98   9.622e+01  0.478   1.565e+01   1.761e+01   1.958e+00

-----------------------------Solution composition------------------------------

	Elements           Molality       Moles

	C                 1.418e+00   1.418e+00

----------------------------Description of solution----------------------------

                                       pH  =   3.086      Charge balance
                                       pe  =   2.217      Adjusted to redox equilibrium
       Specific Conductance (uS/cm, 25 oC) = 327
                          Density (g/cm3)  =   1.02107
                               Volume (L)  =   1.10858
                        Activity of water  =   0.976
                           Ionic strength  =   8.464e-04
                       Mass of water (kg)  =   1.000e+00
                 Total alkalinity (eq/kg)  =   1.215e-09
                       Total CO2 (mol/kg)  =   1.418e+00
                      Temperature (deg C)  =  25.00
                           Pressure (atm)  = 96.22
                  Electrical balance (eq)  =  -1.215e-09
 Percent error, 100*(Cat-|An|)/(Cat+|An|)  =  -0.00
                               Iterations  =  52
                                  Total H  = 1.110124e+02
                                  Total O  = 5.834305e+01

----------------------------Distribution of species----------------------------

                                               Log       Log       Log    mole V
   Species          Molality    Activity  Molality  Activity     Gamma   cm3/mol

   H+              8.464e-04   8.203e-04    -3.072    -3.086    -0.014      0.00
   OH-             1.354e-11   1.311e-11   -10.868   -10.883    -0.014     -3.76
   H2O             5.551e+01   9.759e-01     1.744    -0.011     0.000     17.99
C(-4)         1.179e-18
   CH4             1.179e-18   1.180e-18   -17.928   -17.928     0.000     32.22
C(4)          1.418e+00
   CO2             1.418e+00   1.418e+00     0.152     0.152     0.000     29.49
   HCO3-           8.464e-04   8.195e-04    -3.072    -3.086    -0.014     24.80
   CO3-2           5.977e-11   5.252e-11   -10.224   -10.280    -0.056     -4.55
H(0)          3.135e-14
   H2              1.567e-14   1.568e-14   -13.805   -13.805     0.000     28.56
O(0)          0.000e+00
   O2              0.000e+00   0.000e+00   -64.879   -64.879     0.000     30.26

------------------------------Saturation indices-------------------------------

	Phase               SI** log IAP   log K(298 K,  96 atm)

	CH4(g)          -15.03    -17.93   -2.90  CH4
	CO2(g)            1.66      0.15   -1.51  CO2	 Pressure  96.2 atm, phi 0.478
	H2(g)           -10.66    -13.80   -3.15  H2
	H2O(g)           -1.48     -0.01    1.47  H2O
	O2(g)           -61.94    -64.88   -2.94  O2

**For a gas, SI = log10(fugacity). For ideal gases, fugacity = pressure / 1 atm.
For a Peng-Robinson gas, fugacity = pressure * phi / 1 atm

Reaction step 19.

Using solution 1.	
Using gas phase 1.	
Using reaction 1.	

Reaction 1.	

	  2.000e+00 moles of the following reaction have been added:

	                 Relative
	Reactant            moles

	CO2                  1.00000

	                 Relative
	Element             moles
	C                    1.00000
	O                    2.00000

-----------------------------------Gas phase-----------------------------------

Total pressure: 142.45      atmospheres          (Peng-Robinson calculation)
    Gas volume:   1.00e+00 liters
  Molar volume:   5.12e-02 liters/mole
   P * Vm / RT:  0.29791  (Compressibility Factor Z) 

                                                        Moles in gas
                                            ----------------------------------
Component         log P           P    phi     Initial       Final       Delta

CO2(g)             2.15   1.424e+02  0.357   1.761e+01   1.954e+01   1.935e+00

-----------------------------Solution composition------------------------------

	Elements           Molality       Moles

	C                 1.483e+00   1.483e+00

----------------------------Description of solution----------------------------

                                       pH  =   3.067      Charge balance
                                       pe  =   2.384      Adjusted to redox equilibrium
       Specific Conductance (uS/cm, 25 oC) = 341
                          Density (g/cm3)  =   1.02367
                               Volume (L)  =   1.11163
                        Activity of water  =   0.975
                           Ionic strength  =   8.845e-04
                       Mass of water (kg)  =   1.000e+00
                 Total alkalinity (eq/kg)  =   1.215e-09
                       Total CO2 (mol/kg)  =   1.483e+00
                      Temperature (deg C)  =  25.00
                           Pressure (atm)  = 142.45
                  Electrical balance (eq)  =  -1.215e-09
 Percent error, 100*(Cat-|An|)/(Cat+|An|)  =  -0.00
                               Iterations  =  76
                                  Total H  = 1.110124e+02
                                  Total O  = 5.847213e+01

----------------------------Distribution of species----------------------------

                                               Log       Log       Log    mole V
   Species          Molality    Activity  Molality  Activity     Gamma   cm3/mol

   H+              8.845e-04   8.567e-04    -3.053    -3.067    -0.014      0.00
   OH-             1.349e-11   1.304e-11   -10.870   -10.885    -0.015     -3.60
   H2O             5.551e+01   9.748e-01     1.744    -0.011     0.000     17.96
C(-4)         7.523e-20
   CH4             7.523e-20   7.525e-20   -19.124   -19.123     0.000     32.22
C(4)          1.483e+00
   CO2             1.482e+00   1.482e+00     0.171     0.171     0.000     29.68
   HCO3-           8.845e-04   8.558e-04    -3.053    -3.068    -0.014     24.85
   CO3-2           6.318e-11   5.538e-11   -10.199   -10.257    -0.057     -4.09
H(0)          1.502e-14
   H2              7.510e-15   7.512e-15   -14.124   -14.124     0.000     28.54
O(0)          0.000e+00
   O2              0.000e+00   0.000e+00   -64.283   -64.283     0.000     30.20

------------------------------Saturation indices-------------------------------

	Phase               SI** log IAP   log K(298 K, 142 atm)

	CH4(g)          -16.20    -19.12   -2.92  CH4
	CO2(g)            1.71      0.17   -1.54  CO2	 Pressure 142.4 atm, phi 0.357
	H2(g)           -10.95    -14.12   -3.17  H2
	H2O(g)           -1.47     -0.01    1.46  H2O
	O2(g)           -61.31    -64.28   -2.97  O2

**For a gas, SI = log10(fugacity). For ideal gases, fugacity = pressure / 1 atm.
For a Peng-Robinson gas, fugacity = pressure * phi / 1 atm

Reaction step 20.

WARNING: Numerical method failed, switching to numerical derivatives.
WARNING: Maximum iterations exceeded, 100

WARNING: Numerical method failed with this set of convergence parameters.

WARNING: Trying smaller step size, pe step size 10, 5 ... 

Using solution 1.	
Using gas phase 1.	
Using reaction 1.	

Reaction 1.	

	  2.000e+00 moles of the following reaction have been added:

	                 Relative
	Reactant            moles

	CO2                  1.00000

	                 Relative
	Element             moles
	C                    1.00000
	O                    2.00000

-----------------------------------Gas phase-----------------------------------

Total pressure: 221.11      atmospheres          (Peng-Robinson calculation)
    Gas volume:   1.00e+00 liters
  Molar volume:   4.66e-02 liters/mole
   P * Vm / RT:  0.42123  (Compressibility Factor Z) 

                                                        Moles in gas
                                            ----------------------------------
Component         log P           P    phi     Initial       Final       Delta

CO2(g)             2.34   2.211e+02  0.269   1.954e+01   2.145e+01   1.911e+00

-----------------------------Solution composition------------------------------

	Elements           Molality       Moles

	C                 1.572e+00   1.572e+00

----------------------------Description of solution----------------------------

                                       pH  =   3.039      Charge balance
                                       pe  =  15.845      Adjusted to redox equilibrium
       Specific Conductance (uS/cm, 25 oC) = 365
                          Density (g/cm3)  =   1.02775
                               Volume (L)  =   1.11526
                        Activity of water  =   0.973
                           Ionic strength  =   9.454e-04
                       Mass of water (kg)  =   1.000e+00
                 Total alkalinity (eq/kg)  =   1.215e-09
                       Total CO2 (mol/kg)  =   1.572e+00
                      Temperature (deg C)  =  25.00
                           Pressure (atm)  = 221.11
                  Electrical balance (eq)  =  -1.215e-09
 Percent error, 100*(Cat-|An|)/(Cat+|An|)  =  -0.00
                               Iterations  =  76
                                  Total H  = 1.110124e+02
                                  Total O  = 5.864995e+01

----------------------------Distribution of species----------------------------

                                               Log       Log       Log    mole V
   Species          Molality    Activity  Molality  Activity     Gamma   cm3/mol

   H+              9.454e-04   9.149e-04    -3.024    -3.039    -0.014      0.00
   OH-             1.349e-11   1.303e-11   -10.870   -10.885    -0.015     -3.34
   H2O             5.551e+01   9.733e-01     1.744    -0.012     0.000     17.89
C(-4)         0.000e+00
   CH4             0.000e+00   0.000e+00  -126.607  -126.607     0.000     32.22
C(4)          1.572e+00
   CO2             1.571e+00   1.571e+00     0.196     0.196     0.000     29.97
   HCO3-           9.454e-04   9.139e-04    -3.024    -3.039    -0.015     24.92
   CO3-2           6.918e-11   6.041e-11   -10.160   -10.219    -0.059     -3.35
H(0)          0.000e+00
   H2              0.000e+00   0.000e+00   -41.029   -41.029     0.000     28.51
O(0)          5.674e-11
   O2              2.837e-11   2.838e-11   -10.547   -10.547     0.000     30.09

------------------------------Saturation indices-------------------------------

	Phase               SI** log IAP   log K(298 K, 221 atm)

	CH4(g)         -123.64   -126.61   -2.97  CH4
	CO2(g)            1.77      0.20   -1.58  CO2	 Pressure 221.1 atm, phi 0.269
	H2(g)           -37.82    -41.03   -3.21  H2
	H2O(g)           -1.44     -0.01    1.43  H2O
	O2(g)            -7.54    -10.55   -3.01  O2

**For a gas, SI = log10(fugacity). For ideal gases, fugacity = pressure / 1 atm.
For a Peng-Robinson gas, fugacity = pressure * phi / 1 atm

Reaction step 21.

Using solution 1.	
Using gas phase 1.	
Using reaction 1.	

Reaction 1.	

	  2.000e+00 moles of the following reaction have been added:

	                 Relative
	Reactant            moles

	CO2                  1.00000

	                 Relative
	Element             moles
	C                    1.00000
	O                    2.00000

[...]

	Phase               SI** log IAP   log K(423 K, 385 atm)

	CH4(g)          -74.18    -77.31   -3.12  CH4
	CO2(g)            2.40      0.22   -2.18  CO2	 Pressure 384.8 atm, phi 0.650
	H2(g)           -22.56    -25.68   -3.12  H2
	H2O(g)            0.74     -0.01   -0.75  H2O
	O2(g)            -9.68    -12.88   -3.20  O2

**For a gas, SI = log10(fugacity). For ideal gases, fugacity = pressure / 1 atm.
For a Peng-Robinson gas, fugacity = pressure * phi / 1 atm

Reaction step 17.

Using solution 1.	
Using gas phase 1.	
Using reaction 1.	

Reaction 1.	

	  2.000e+00 moles of the following reaction have been added:

	                 Relative
	Reactant            moles

	CO2                  1.00000

	                 Relative
	Element             moles
	C                    1.00000
	O                    2.00000

-----------------------------------Gas phase-----------------------------------

Total pressure: 468.98      atmospheres          (Peng-Robinson calculation)
    Gas volume:   1.00e+00 liters
  Molar volume:   6.58e-02 liters/mole
   P * Vm / RT:  0.88857  (Compressibility Factor Z) 

                                                        Moles in gas
                                            ----------------------------------
Component         log P           P    phi     Initial       Final       Delta

CO2(g)             2.67   4.690e+02  0.632   1.336e+01   1.520e+01   1.842e+00

-----------------------------Solution composition------------------------------

	Elements           Molality       Moles

	C                 1.827e+00   1.827e+00

----------------------------Description of solution----------------------------

                                       pH  =   3.199      Charge balance
                                       pe  =   7.803      Adjusted to redox equilibrium
       Specific Conductance (uS/cm, 150 oC) = 1246
                          Density (g/cm3)  =   0.97187
                               Volume (L)  =   1.20380
                        Activity of water  =   0.969
                           Ionic strength  =   6.681e-04
                       Mass of water (kg)  =   1.000e+00
                 Total alkalinity (eq/kg)  =   2.360e-05
                       Total CO2 (mol/kg)  =   1.827e+00
                      Temperature (deg C)  = 150.00
                           Pressure (atm)  = 468.98
                  Electrical balance (eq)  =  -2.360e-05
 Percent error, 100*(Cat-|An|)/(Cat+|An|)  =  -1.77
                               Iterations  =  89
                                  Total H  = 1.110125e+02
                                  Total O  = 5.916004e+01

----------------------------Distribution of species----------------------------

                                               Log       Log       Log    mole V
   Species          Molality    Activity  Molality  Activity     Gamma   cm3/mol

   H+              6.563e-04   6.329e-04    -3.183    -3.199    -0.016      0.00
   OH-             5.776e-09   5.560e-09    -8.238    -8.255    -0.017    -12.93
   H2O             5.551e+01   9.689e-01     1.744    -0.014     0.000     19.13
C(-4)         0.000e+00
   CH4             0.000e+00   0.000e+00   -77.276   -77.276     0.000     32.22
C(4)          1.827e+00
   CO2             1.826e+00   1.827e+00     0.262     0.262     0.000     27.18
   HCO3-           6.799e-04   6.549e-04    -3.168    -3.184    -0.016     22.57
   CO3-2           1.002e-10   8.628e-11    -9.999   -10.064    -0.065    -30.06
H(0)          3.996e-26
   H2              1.998e-26   1.998e-26   -25.699   -25.699     0.000     28.37
O(0)          2.562e-13
   O2              1.281e-13   1.281e-13   -12.893   -12.892     0.000     34.06

------------------------------Saturation indices-------------------------------

	Phase               SI** log IAP   log K(423 K, 469 atm)

	CH4(g)          -74.12    -77.28   -3.16  CH4
	CO2(g)            2.47      0.26   -2.21  CO2	 Pressure 469.0 atm, phi 0.632
	H2(g)           -22.55    -25.70   -3.15  H2
	H2O(g)            0.76     -0.01   -0.77  H2O
	O2(g)            -9.65    -12.89   -3.24  O2

**For a gas, SI = log10(fugacity). For ideal gases, fugacity = pressure / 1 atm.
For a Peng-Robinson gas, fugacity = pressure * phi / 1 atm

Reaction step 18.

WARNING: Numerical method failed, switching to numerical derivatives.
WARNING: Maximum iterations exceeded, 100

WARNING: Numerical method failed with this set of convergence parameters.

WARNING: Trying smaller step size, pe step size 10, 5 ... 

Using solution 1.	
Using gas phase 1.	
Using reaction 1.	

Reaction 1.	

	  2.000e+00 moles of the following reaction have been added:

	                 Relative
	Reactant            moles

	CO2                  1.00000

	                 Relative
	Element             moles
	C                    1.00000
	O                    2.00000

-----------------------------------Gas phase-----------------------------------

Total pressure: 575.77      atmospheres          (Peng-Robinson calculation)
    Gas volume:   1.00e+00 liters
  Molar volume:   5.87e-02 liters/mole
   P * Vm / RT:  0.97299  (Compressibility Factor Z) 

                                                        Moles in gas
                                            ----------------------------------
Component         log P           P    phi     Initial       Final       Delta

CO2(g)             2.76   5.758e+02  0.622   1.520e+01   1.704e+01   1.842e+00

-----------------------------Solution composition------------------------------

	Elements           Molality       Moles

	C                 1.985e+00   1.985e+00

----------------------------Description of solution----------------------------

                                       pH  =   3.162      Charge balance
                                       pe  =   8.744      Adjusted to redox equilibrium
       Specific Conductance (uS/cm, 150 oC) = 1357
                          Density (g/cm3)  =   0.97686
                               Volume (L)  =   1.21269
                        Activity of water  =   0.966
                           Ionic strength  =   7.272e-04
                       Mass of water (kg)  =   1.000e+00
                 Total alkalinity (eq/kg)  =   2.360e-05
                       Total CO2 (mol/kg)  =   1.985e+00
                      Temperature (deg C)  = 150.00
                           Pressure (atm)  = 575.77
                  Electrical balance (eq)  =  -2.360e-05
 Percent error, 100*(Cat-|An|)/(Cat+|An|)  =  -1.62
                               Iterations  =  16
                                  Total H  = 1.110125e+02
                                  Total O  = 5.947595e+01

----------------------------Distribution of species----------------------------

                                               Log       Log       Log    mole V
   Species          Molality    Activity  Molality  Activity     Gamma   cm3/mol

   H+              7.153e-04   6.890e-04    -3.145    -3.162    -0.016      0.00
   OH-             5.855e-09   5.629e-09    -8.232    -8.250    -0.017    -13.13
   H2O             5.551e+01   9.662e-01     1.744    -0.015     0.000     19.03
C(-4)         0.000e+00
   CH4             0.000e+00   0.000e+00   -84.517   -84.517     0.000     32.22
C(4)          1.985e+00
   CO2             1.984e+00   1.984e+00     0.298     0.298     0.000     28.63
   HCO3-           7.389e-04   7.109e-04    -3.131    -3.148    -0.017     23.08
   CO3-2           1.138e-10   9.752e-11    -9.944   -10.011    -0.067    -27.36
H(0)          5.697e-28
   H2              2.849e-28   2.849e-28   -27.545   -27.545     0.000     28.33
O(0)          1.070e-09
   O2              5.350e-10   5.351e-10    -9.272    -9.272     0.000     33.72

------------------------------Saturation indices-------------------------------

	Phase               SI** log IAP   log K(423 K, 576 atm)

	CH4(g)          -81.32    -84.52   -3.20  CH4
	CO2(g)            2.55      0.30   -2.26  CO2	 Pressure 575.8 atm, phi 0.622
	H2(g)           -24.36    -27.55   -3.18  H2
	H2O(g)            0.78     -0.01   -0.80  H2O
	O2(g)            -5.99     -9.27   -3.28  O2

**For a gas, SI = log10(fugacity). For ideal gases, fugacity = pressure / 1 atm.
For a Peng-Robinson gas, fugacity = pressure * phi / 1 atm

Reaction step 19.

Using solution 1.	
Using gas phase 1.	
Using reaction 1.	

Reaction 1.	

	  2.000e+00 moles of the following reaction have been added:

	                 Relative
	Reactant            moles

	CO2                  1.00000

	                 Relative
	Element             moles
	C                    1.00000
	O                    2.00000

-----------------------------------Gas phase-----------------------------------

Total pressure: 714.93      atmospheres          (Peng-Robinson calculation)
    Gas volume:   1.00e+00 liters
  Molar volume:   5.29e-02 liters/mole
   P * Vm / RT:  1.08975  (Compressibility Factor Z) 

                                                        Moles in gas
                                            ----------------------------------
Component         log P           P    phi     Initial       Final       Delta

CO2(g)             2.85   7.149e+02  0.626   1.704e+01   1.889e+01   1.852e+00

-----------------------------Solution composition------------------------------

	Elements           Molality       Moles

	C                 2.133e+00   2.133e+00

----------------------------Description of solution----------------------------

                                       pH  =   3.120      Charge balance
                                       pe  =   8.784      Adjusted to redox equilibrium
       Specific Conductance (uS/cm, 150 oC) = 1494
                          Density (g/cm3)  =   0.98196
                               Volume (L)  =   1.22044
                        Activity of water  =   0.964
                           Ionic strength  =   8.002e-04
                       Mass of water (kg)  =   1.000e+00
                 Total alkalinity (eq/kg)  =   2.360e-05
                       Total CO2 (mol/kg)  =   2.133e+00
                      Temperature (deg C)  = 150.00
                           Pressure (atm)  = 714.93
                  Electrical balance (eq)  =  -2.360e-05
 Percent error, 100*(Cat-|An|)/(Cat+|An|)  =  -1.47
                               Iterations  =  25
                                  Total H  = 1.110125e+02
                                  Total O  = 5.977242e+01

----------------------------Distribution of species----------------------------

                                               Log       Log       Log    mole V
   Species          Molality    Activity  Molality  Activity     Gamma   cm3/mol

   H+              7.884e-04   7.584e-04    -3.103    -3.120    -0.017      0.00
   OH-             6.058e-09   5.816e-09    -8.218    -8.235    -0.018    -13.37
   H2O             5.551e+01   9.637e-01     1.744    -0.016     0.000     18.90
C(-4)         0.000e+00
   CH4             0.000e+00   0.000e+00   -84.525   -84.525     0.000     32.22
C(4)          2.133e+00
   CO2             2.132e+00   2.133e+00     0.329     0.329     0.000     30.38
   HCO3-           8.120e-04   7.801e-04    -3.090    -3.108    -0.017     23.68
   CO3-2           1.324e-10   1.128e-10    -9.878    -9.948    -0.070    -24.14
H(0)          5.130e-28
   H2              2.565e-28   2.565e-28   -27.591   -27.591     0.000     28.29
O(0)          1.070e-09
   O2              5.350e-10   5.351e-10    -9.272    -9.272     0.000     33.31

------------------------------Saturation indices-------------------------------

	Phase               SI** log IAP   log K(423 K, 715 atm)

	CH4(g)          -81.27    -84.52   -3.26  CH4
	CO2(g)            2.65      0.33   -2.32  CO2	 Pressure 714.9 atm, phi 0.626
	H2(g)           -24.36    -27.59   -3.23  H2
	H2O(g)            0.81     -0.02   -0.83  H2O
	O2(g)            -5.93     -9.27   -3.34  O2

**For a gas, SI = log10(fugacity). For ideal gases, fugacity = pressure / 1 atm.
For a Peng-Robinson gas, fugacity = pressure * phi / 1 atm

Reaction step 20.

Using solution 1.	
Using gas phase 1.	
Using reaction 1.	

Reaction 1.	

	  2.000e+00 moles of the following reaction have been added:

	                 Relative
	Reactant            moles

	CO2                  1.00000

	                 Relative
	Element             moles
	C                    1.00000
	O                    2.00000

-----------------------------------Gas phase-----------------------------------

Total pressure: 902.69      atmospheres          (Peng-Robinson calculation)
    Gas volume:   1.00e+00 liters
  Molar volume:   4.81e-02 liters/mole
   P * Vm / RT:  1.25110  (Compressibility Factor Z) 

                                                        Moles in gas
                                            ----------------------------------
Component         log P           P    phi     Initial       Final       Delta

CO2(g)             2.96   9.027e+02  0.651   1.889e+01   2.078e+01   1.885e+00

-----------------------------Solution composition------------------------------

	Elements           Molality       Moles

	C                 2.248e+00   2.248e+00

----------------------------Description of solution----------------------------

                                       pH  =   3.071      Charge balance
                                       pe  =   8.830      Adjusted to redox equilibrium
       Specific Conductance (uS/cm, 150 oC) = 1672
                          Density (g/cm3)  =   0.98713
                               Volume (L)  =   1.22485
                        Activity of water  =   0.962
                           Ionic strength  =   8.952e-04
                       Mass of water (kg)  =   1.000e+00
                 Total alkalinity (eq/kg)  =   2.360e-05
                       Total CO2 (mol/kg)  =   2.248e+00
                      Temperature (deg C)  = 150.00
                           Pressure (atm)  = 902.69
                  Electrical balance (eq)  =  -2.360e-05
 Percent error, 100*(Cat-|An|)/(Cat+|An|)  =  -1.32
                               Iterations  =  30
                                  Total H  = 1.110125e+02
                                  Total O  = 6.000179e+01

----------------------------Distribution of species----------------------------

                                               Log       Log       Log    mole V
   Species          Molality    Activity  Molality  Activity     Gamma   cm3/mol

   H+              8.834e-04   8.486e-04    -3.054    -3.071    -0.017      0.00
   OH-             6.469e-09   6.200e-09    -8.189    -8.208    -0.018    -13.68
   H2O             5.551e+01   9.618e-01     1.744    -0.017     0.000     18.74
C(-4)         0.000e+00
   CH4             0.000e+00   0.000e+00   -84.544   -84.544     0.000     32.22
C(4)          2.248e+00
   CO2             2.247e+00   2.247e+00     0.352     0.352     0.000     32.52
   HCO3-           9.070e-04   8.700e-04    -3.042    -3.060    -0.018     24.40
   CO3-2           1.585e-10   1.342e-10    -9.800    -9.872    -0.072    -20.28
H(0)          4.463e-28
   H2              2.231e-28   2.232e-28   -27.651   -27.651     0.000     28.23
O(0)          1.070e-09
   O2              5.350e-10   5.351e-10    -9.272    -9.272     0.000     32.81

------------------------------Saturation indices-------------------------------

	Phase               SI** log IAP   log K(423 K, 903 atm)

	CH4(g)          -81.21    -84.54   -3.33  CH4
	CO2(g)            2.77      0.35   -2.42  CO2	 Pressure 902.7 atm, phi 0.651
	H2(g)           -24.35    -27.65   -3.30  H2
	H2O(g)            0.85     -0.02   -0.87  H2O
	O2(g)            -5.86     -9.27   -3.41  O2

**For a gas, SI = log10(fugacity). For ideal gases, fugacity = pressure / 1 atm.
For a Peng-Robinson gas, fugacity = pressure * phi / 1 atm

Reaction step 21.

Using solution 1.	
Using gas phase 1.	
Using reaction 1.	

Reaction 1.	

	  2.000e+00 moles of the following reaction have been added:

	                 Relative
	Reactant            moles

	CO2                  1.00000

	                 Relative
	Element             moles
	C                    1.00000
	O                    2.00000

-----------------------------------Gas phase-----------------------------------

Total pressure: 1170.96      atmospheres          (Peng-Robinson calculation)
    Gas volume:   1.00e+00 liters
  Molar volume:   4.40e-02 liters/mole
   P * Vm / RT:  1.48228  (Compressibility Factor Z) 

                                                        Moles in gas
                                            ----------------------------------
Component         log P           P    phi     Initial       Final       Delta

CO2(g)             3.07   1.171e+03  0.715   2.078e+01   2.275e+01   1.971e+00

-----------------------------Solution composition------------------------------

	Elements           Molality       Moles

	C                 2.276e+00   2.276e+00

----------------------------Description of solution----------------------------

                                       pH  =   3.011      Charge balance
                                       pe  =   8.885      Adjusted to redox equilibrium
       Specific Conductance (uS/cm, 150 oC) = 1921
                          Density (g/cm3)  =   0.99254
                               Volume (L)  =   1.22085
                        Activity of water  =   0.961
                           Ionic strength  =   1.028e-03
                       Mass of water (kg)  =   1.000e+00
                 Total alkalinity (eq/kg)  =   2.360e-05
                       Total CO2 (mol/kg)  =   2.276e+00
                      Temperature (deg C)  = 150.00
                           Pressure (atm)  = 1170.96
                  Electrical balance (eq)  =  -2.360e-05
 Percent error, 100*(Cat-|An|)/(Cat+|An|)  =  -1.15
                               Iterations  =  37
                                  Total H  = 1.110125e+02
                                  Total O  = 6.005904e+01

----------------------------Distribution of species----------------------------

                                               Log       Log       Log    mole V
   Species          Molality    Activity  Molality  Activity     Gamma   cm3/mol

   H+              1.016e-03   9.746e-04    -2.993    -3.011    -0.018      0.00
   OH-             7.299e-09   6.981e-09    -8.137    -8.156    -0.019    -14.10
   H2O             5.551e+01   9.613e-01     1.744    -0.017     0.000     18.53
C(-4)         0.000e+00
   CH4             0.000e+00   0.000e+00   -84.581   -84.581     0.000     32.22
C(4)          2.276e+00
   CO2             2.275e+00   2.276e+00     0.357     0.357     0.000     35.20
   HCO3-           1.040e-03   9.956e-04    -2.983    -3.002    -0.019     25.28
   CO3-2           1.976e-10   1.659e-10    -9.704    -9.780    -0.076    -15.56
H(0)          3.672e-28
   H2              1.836e-28   1.836e-28   -27.736   -27.736     0.000     28.17
O(0)          1.070e-09
   O2              5.350e-10   5.352e-10    -9.272    -9.272     0.000     32.18

------------------------------Saturation indices-------------------------------

	Phase               SI** log IAP   log K(423 K, 1171 atm)

	CH4(g)          -81.14    -84.58   -3.44  CH4
	CO2(g)            2.92      0.36   -2.57  CO2	 Pressure 1171.0 atm, phi 0.715
	H2(g)           -24.34    -27.74   -3.39  H2
	H2O(g)            0.91     -0.02   -0.93  H2O
	O2(g)            -5.76     -9.27   -3.51  O2

**For a gas, SI = log10(fugacity). For ideal gases, fugacity = pressure / 1 atm.
For a Peng-Robinson gas, fugacity = pressure * phi / 1 atm

------------------
End of simulation.
------------------

------------------------------------
Reading input data for simulation 5.
------------------------------------

------------------------------
End of Run after 0.11 Seconds.
------------------------------

