WARNING: Database file from DATABASE keyword is used; command line argument ignored.
   Input file: CO2_conc_PR_EQ
  Output file: CO2_conc_PR_EQ.out
Database file: ../database/phreeqc.dat

------------------
Reading data base.
------------------

	SOLUTION_MASTER_SPECIES
	SOLUTION_SPECIES
	PHASES
	EXCHANGE_MASTER_SPECIES
	EXCHANGE_SPECIES
	SURFACE_MASTER_SPECIES
	SURFACE_SPECIES
	RATES
	END
------------------------------------
Reading input data for simulation 1.
------------------------------------

	DATABASE ../database/phreeqc.dat
	SELECTED_OUTPUT 101
	    file                 CO2_conc_PR_EQ_101.sel
	USER_PUNCH 101
	    headings Mu SC
	    start
	10 PUNCH STR_F$(MU, 20, 12)
	20 PUNCH STR_F$(SC, 20, 10)
	    end
	SOLUTION 1
	SELECTED_OUTPUT
	 reset false
	 file CO2_conc_PR_EQ.sel
	USER_PUNCH
	  1 sc$ = chr$(59)
	 10 for i = 1.1 to 520 step 20
	 20   punch 'SOLUTION 1' + sc$ + ' -temp 25' + sc$ + '-pressure ' + str$(i) + EOL$ + 'EQUILIBRIUM_PHASES' + sc$ + ' CO2(g) ' + str$(log10(i)) + EOL$ + 'END' + EOL$
	 30 next i
	END
-------------------------------------------
Beginning of initial solution calculations.
-------------------------------------------

Initial solution 1.	

WARNING: USER_PUNCH: Headings count does not match number of calls to PUNCH.

-----------------------------Solution composition------------------------------

	Elements           Molality       Moles

	Pure water     

----------------------------Description of solution----------------------------

                                       pH  =   7.000    
                                       pe  =   4.000    
      Specific Conductance (µS/cm,  25°C)  = 0
                          Density (g/cm³)  =   0.99704
                               Volume (L)  =   1.00297
                        Viscosity (mPa s)  =   0.89002
                        Activity of water  =   1.000
                 Ionic strength (mol/kgw)  =   1.007e-07
                       Mass of water (kg)  =   1.000e+00
                 Total alkalinity (eq/kg)  =   1.217e-09
                         Temperature (°C)  =  25.00
                  Electrical balance (eq)  =  -1.217e-09
 Percent error, 100*(Cat-|An|)/(Cat+|An|)  =  -0.60
                               Iterations  =   0
                                  Total H  = 1.110124e+02
                                  Total O  = 5.550622e+01

----------------------------Distribution of species----------------------------

                                               Log       Log       Log    mole V
   Species          Molality    Activity  Molality  Activity     Gamma   cm³/mol

   OH-             1.013e-07   1.012e-07    -6.995    -6.995    -0.000     -4.14
   H+              1.001e-07   1.000e-07    -7.000    -7.000    -0.000      0.00
   H2O             5.551e+01   1.000e+00     1.744     0.000     0.000     18.07
H(0)          1.416e-25
   H2              7.079e-26   7.079e-26   -25.150   -25.150     0.000     28.61
O(0)          0.000e+00
   O2              0.000e+00   0.000e+00   -42.080   -42.080     0.000     30.40

------------------------------Saturation indices-------------------------------

  Phase               SI** log IAP   log K(298 K,   1 atm)

  H2(g)           -22.05    -25.15   -3.10  H2
  H2O(g)           -1.50      0.00    1.50  H2O
  O2(g)           -39.19    -42.08   -2.89  O2

**For a gas, SI = log10(fugacity). Fugacity = pressure * phi / 1 atm.
  For ideal gases, phi = 1.

------------------
End of simulation.
------------------

------------------------------------
Reading input data for simulation 2.
------------------------------------

	SELECTED_OUTPUT
	 active false
	USER_GRAPH
	 -chart_title "Using: EQUILIBRIUM_PHASES"
	 -plot_csv_file co2.dat
	 -axis_titles "Pressure / atm" "CO2 / (mol/kgw)"
	 -axis_scale x_axis 0 500
	 -axis_scale y_axis 0 2
	 10 x = PR_P("CO2(g)")
	 20 graph_x x # tot("Na")
	 30 graph_y tot("C(4)")
	 -end

	Reading data from CO2_conc_PR_EQ.sel ...
	SOLUTION 1
	 temp 25
	pressure   1.1000e+00
	EQUILIBRIUM_PHASES
	 CO2(g)   4.1393e-02
	END
-------------------------------------------
Beginning of initial solution calculations.
-------------------------------------------

Initial solution 1.	

-----------------------------Solution composition------------------------------

	Elements           Molality       Moles

	Pure water     

----------------------------Description of solution----------------------------

                                       pH  =   7.000    
                                       pe  =   4.000    
      Specific Conductance (µS/cm,  25°C)  = 0
                          Density (g/cm³)  =   0.99705
                               Volume (L)  =   1.00296
                        Viscosity (mPa s)  =   0.89002
                        Activity of water  =   1.000
                 Ionic strength (mol/kgw)  =   1.007e-07
                       Mass of water (kg)  =   1.000e+00
                 Total alkalinity (eq/kg)  =   1.226e-09
                         Temperature (°C)  =  25.00
                           Pressure (atm)  =  1.10
                  Electrical balance (eq)  =  -1.226e-09
 Percent error, 100*(Cat-|An|)/(Cat+|An|)  =  -0.61
                               Iterations  =   0
                                  Total H  = 1.110124e+02
                                  Total O  = 5.550622e+01

----------------------------Distribution of species----------------------------

                                               Log       Log       Log    mole V
   Species          Molality    Activity  Molality  Activity     Gamma   cm³/mol

   OH-             1.013e-07   1.012e-07    -6.994    -6.995    -0.000     -4.14
   H+              1.001e-07   1.000e-07    -7.000    -7.000    -0.000      0.00
   H2O             5.551e+01   1.000e+00     1.744     0.000     0.000     18.07
H(0)          1.416e-25
   H2              7.079e-26   7.079e-26   -25.150   -25.150     0.000     28.61
O(0)          0.000e+00
   O2              0.000e+00   0.000e+00   -42.080   -42.080     0.000     30.40

------------------------------Saturation indices-------------------------------

  Phase               SI** log IAP   log K(298 K,   1 atm)

  H2(g)           -22.05    -25.15   -3.10  H2
  H2O(g)           -1.50      0.00    1.50  H2O
  O2(g)           -39.19    -42.08   -2.89  O2

**For a gas, SI = log10(fugacity). Fugacity = pressure * phi / 1 atm.
  For ideal gases, phi = 1.

-----------------------------------------
Beginning of batch-reaction calculations.
-----------------------------------------

Reaction step 1.

Using solution 1.	
Using pure phase assemblage 1.	

-------------------------------Phase assemblage--------------------------------

                                                      Moles in assemblage
Phase               SI  log IAP  log K(T, P)   Initial       Final       Delta

CO2(g)            0.04    -1.43     -1.47    1.000e+01   9.963e+00  -3.738e-02

-----------------------------Solution composition------------------------------

	Elements           Molality       Moles

	C                 3.738e-02   3.738e-02

----------------------------Description of solution----------------------------

                                       pH  =   3.891      Charge balance
                                       pe  =   1.619      Adjusted to redox equilibrium
      Specific Conductance (µS/cm,  25°C)  = 51
                          Density (g/cm³)  =   0.99741
                               Volume (L)  =   1.00424
                        Viscosity (mPa s)  =   0.89008
                        Activity of water  =   0.999
                 Ionic strength (mol/kgw)  =   1.303e-04
                       Mass of water (kg)  =   1.000e+00
                 Total alkalinity (eq/kg)  =   1.226e-09
                       Total CO2 (mol/kg)  =   3.738e-02
                         Temperature (°C)  =  25.00
                           Pressure (atm)  =  1.10
                  Electrical balance (eq)  =  -1.226e-09
 Percent error, 100*(Cat-|An|)/(Cat+|An|)  =  -0.00
                               Iterations  =  14
                                  Total H  = 1.110124e+02
                                  Total O  = 5.558097e+01

----------------------------Distribution of species----------------------------

                                               Log       Log       Log    mole V
   Species          Molality    Activity  Molality  Activity     Gamma   cm³/mol

   H+              1.303e-04   1.286e-04    -3.885    -3.891    -0.006      0.00
   OH-             7.971e-11   7.866e-11   -10.098   -10.104    -0.006     -4.13
   H2O             5.551e+01   9.994e-01     1.744    -0.000     0.000     18.07
C(-4)         7.676e-22
   CH4             7.676e-22   7.676e-22   -21.115   -21.115     0.000     35.46
C(4)          3.738e-02
   CO2             3.720e-02   3.720e-02    -1.429    -1.429     0.000     34.43
   HCO3-           1.303e-04   1.286e-04    -3.885    -3.891    -0.006     24.53
   (CO2)2          2.540e-05   2.540e-05    -4.595    -4.595     0.000     68.87
   CO3-2           4.943e-11   4.689e-11   -10.306   -10.329    -0.023     -4.15
H(0)          1.355e-14
   H2              6.775e-15   6.775e-15   -14.169   -14.169     0.000     28.61
O(0)          0.000e+00
   O2              0.000e+00   0.000e+00   -64.042   -64.042     0.000     30.40

------------------------------Saturation indices-------------------------------

  Phase               SI** log IAP   log K(298 K,   1 atm)

  CH4(g)          -18.31    -21.11   -2.80  CH4
  CO2(g)            0.04     -1.43   -1.47  CO2	 Pressure   1.1 atm, phi 0.994
  H2(g)           -11.07    -14.17   -3.10  H2
  H2O(g)           -1.50     -0.00    1.50  H2O
  O2(g)           -61.15    -64.04   -2.89  O2

**For a gas, SI = log10(fugacity). Fugacity = pressure * phi / 1 atm.
  For ideal gases, phi = 1.

------------------
End of simulation.
------------------

------------------------------------
Reading input data for simulation 3.
------------------------------------

		SOLUTION 1
	 temp 25
	pressure   2.1100e+01
	EQUILIBRIUM_PHASES
	 CO2(g)   1.3243e+00
	END
-------------------------------------------
Beginning of initial solution calculations.
-------------------------------------------

Initial solution 1.	

-----------------------------Solution composition------------------------------

	Elements           Molality       Moles

	Pure water     

----------------------------Description of solution----------------------------

                                       pH  =   7.000    
                                       pe  =   4.000    
      Specific Conductance (µS/cm,  25°C)  = 0
                          Density (g/cm³)  =   0.99795
                               Volume (L)  =   1.00206
                        Viscosity (mPa s)  =   0.88975
                        Activity of water  =   1.000
                 Ionic strength (mol/kgw)  =   1.016e-07
                       Mass of water (kg)  =   1.000e+00
                 Total alkalinity (eq/kg)  =   3.073e-09
                         Temperature (°C)  =  25.00
                           Pressure (atm)  = 21.10
                  Electrical balance (eq)  =  -3.073e-09
 Percent error, 100*(Cat-|An|)/(Cat+|An|)  =  -1.51
                               Iterations  =   0
                                  Total H  = 1.110124e+02
                                  Total O  = 5.550622e+01

----------------------------Distribution of species----------------------------

                                               Log       Log       Log    mole V
   Species          Molality    Activity  Molality  Activity     Gamma   cm³/mol

   OH-             1.031e-07   1.031e-07    -6.987    -6.987    -0.000     -4.06
   H+              1.001e-07   1.000e-07    -7.000    -7.000    -0.000      0.00
   H2O             5.551e+01   1.000e+00     1.744     0.000     0.000     18.05
H(0)          1.383e-25
   H2              6.915e-26   6.915e-26   -25.160   -25.160     0.000     28.60
O(0)          0.000e+00
   O2              0.000e+00   0.000e+00   -42.078   -42.078     0.000     30.37

------------------------------Saturation indices-------------------------------

  Phase               SI** log IAP   log K(298 K,  21 atm)

  H2(g)           -22.05    -25.16   -3.11  H2
  H2O(g)           -1.50      0.00    1.50  H2O
  O2(g)           -39.17    -42.08   -2.90  O2

**For a gas, SI = log10(fugacity). Fugacity = pressure * phi / 1 atm.
  For ideal gases, phi = 1.

-----------------------------------------
Beginning of batch-reaction calculations.
-----------------------------------------

Reaction step 1.

Using solution 1.	
Using pure phase assemblage 1.	

-------------------------------Phase assemblage--------------------------------

                                                      Moles in assemblage
Phase               SI  log IAP  log K(T, P)   Initial       Final       Delta

CO2(g)            1.27    -0.21     -1.48    1.000e+01   9.367e+00  -6.332e-01

-----------------------------Solution composition------------------------------

	Elements           Molality       Moles

	C                 6.332e-01   6.332e-01

----------------------------Description of solution----------------------------

                                       pH  =   3.277      Charge balance
                                       pe  =   2.218      Adjusted to redox equilibrium
      Specific Conductance (µS/cm,  25°C)  = 212
                          Density (g/cm³)  =   1.00394
                               Volume (L)  =   1.02384
                        Viscosity (mPa s)  =   0.88992
                        Activity of water  =   0.989
                 Ionic strength (mol/kgw)  =   5.416e-04
                       Mass of water (kg)  =   1.000e+00
                 Total alkalinity (eq/kg)  =   3.073e-09
                       Total CO2 (mol/kg)  =   6.332e-01
                         Temperature (°C)  =  25.00
                           Pressure (atm)  = 21.10
                  Electrical balance (eq)  =  -3.073e-09
 Percent error, 100*(Cat-|An|)/(Cat+|An|)  =  -0.00
                               Iterations  =  14
                                  Total H  = 1.110124e+02
                                  Total O  = 5.677267e+01

----------------------------Distribution of species----------------------------

                                               Log       Log       Log    mole V
   Species          Molality    Activity  Molality  Activity     Gamma   cm³/mol

   H+              5.416e-04   5.280e-04    -3.266    -3.277    -0.011      0.00
   OH-             1.983e-11   1.931e-11   -10.703   -10.714    -0.012     -4.04
   H2O             5.551e+01   9.893e-01     1.744    -0.005     0.000     18.05
C(-4)         1.645e-20
   CH4             1.645e-20   1.645e-20   -19.784   -19.784     0.000     35.48
C(4)          6.332e-01
   CO2             6.186e-01   6.187e-01    -0.209    -0.209     0.000     34.42
   (CO2)2          7.025e-03   7.026e-03    -2.153    -2.153     0.000     68.85
   HCO3-           5.416e-04   5.276e-04    -3.266    -3.278    -0.011     24.57
   CO3-2           5.328e-11   4.798e-11   -10.273   -10.319    -0.046     -3.92
H(0)          1.414e-14
   H2              7.068e-15   7.069e-15   -14.151   -14.151     0.000     28.60
O(0)          0.000e+00
   O2              0.000e+00   0.000e+00   -64.106   -64.106     0.000     30.37

------------------------------Saturation indices-------------------------------

  Phase               SI** log IAP   log K(298 K,  21 atm)

  CH4(g)          -16.97    -19.78   -2.81  CH4
  CO2(g)            1.27     -0.21   -1.48  CO2	 Pressure  21.1 atm, phi 0.886
  H2(g)           -11.04    -14.15   -3.11  H2
  H2O(g)           -1.50     -0.00    1.50  H2O
  O2(g)           -61.20    -64.11   -2.90  O2

**For a gas, SI = log10(fugacity). Fugacity = pressure * phi / 1 atm.
  For ideal gases, phi = 1.

------------------
End of simulation.
------------------

------------------------------------
Reading input data for simulation 4.
------------------------------------

		SOLUTION 1
	 temp 25
	pressure   4.1100e+01
	EQUILIBRIUM_PHASES
	 CO2(g)   1.6138e+00
	END
-------------------------------------------
Beginning of initial solution calculations.
-------------------------------------------

Initial solution 1.	

-----------------------------Solution composition------------------------------

	Elements           Molality       Moles

	Pure water     

----------------------------Description of solution----------------------------

                                       pH  =   7.000    
                                       pe  =   4.000    
      Specific Conductance (µS/cm,  25°C)  = 0
                          Density (g/cm³)  =   0.99885
                               Volume (L)  =   1.00116
                        Viscosity (mPa s)  =   0.88949
                        Activity of water  =   1.000
                 Ionic strength (mol/kgw)  =   1.025e-07
                       Mass of water (kg)  =   1.000e+00
                 Total alkalinity (eq/kg)  =   4.939e-09
                         Temperature (°C)  =  25.00
                           Pressure (atm)  = 41.10
                  Electrical balance (eq)  =  -4.939e-09
 Percent error, 100*(Cat-|An|)/(Cat+|An|)  =  -2.41
                               Iterations  =   0
                                  Total H  = 1.110124e+02
                                  Total O  = 5.550622e+01

----------------------------Distribution of species----------------------------

                                               Log       Log       Log    mole V
   Species          Molality    Activity  Molality  Activity     Gamma   cm³/mol

   OH-             1.050e-07   1.050e-07    -6.979    -6.979    -0.000     -3.99
   H+              1.001e-07   1.000e-07    -7.000    -7.000    -0.000      0.00
   H2O             5.551e+01   1.000e+00     1.744     0.000     0.000     18.04
H(0)          1.351e-25
   H2              6.755e-26   6.755e-26   -25.170   -25.170     0.000     28.59
O(0)          0.000e+00
   O2              0.000e+00   0.000e+00   -42.076   -42.076     0.000     30.34

------------------------------Saturation indices-------------------------------

  Phase               SI** log IAP   log K(298 K,  41 atm)

  H2(g)           -22.05    -25.17   -3.12  H2
  H2O(g)           -1.49      0.00    1.49  H2O
  O2(g)           -39.16    -42.08   -2.91  O2

**For a gas, SI = log10(fugacity). Fugacity = pressure * phi / 1 atm.
  For ideal gases, phi = 1.

-----------------------------------------
Beginning of batch-reaction calculations.
-----------------------------------------

Reaction step 1.

Using solution 1.	
Using pure phase assemblage 1.	

-------------------------------Phase assemblage--------------------------------

                                                      Moles in assemblage
Phase               SI  log IAP  log K(T, P)   Initial       Final       Delta

CO2(g)            1.51     0.02     -1.49    1.000e+01   8.925e+00  -1.075e+00

-----------------------------Solution composition------------------------------

	Elements           Molality       Moles

	C                 1.075e+00   1.075e+00

----------------------------Description of solution----------------------------

                                       pH  =   3.162      Charge balance
                                       pe  =   2.462      Adjusted to redox equilibrium
      Specific Conductance (µS/cm,  25°C)  = 277
                          Density (g/cm³)  =   1.00885
                               Volume (L)  =   1.03814
                        Viscosity (mPa s)  =   0.88970
                        Activity of water  =   0.982
                 Ionic strength (mol/kgw)  =   7.085e-04
                       Mass of water (kg)  =   1.000e+00
                 Total alkalinity (eq/kg)  =   4.939e-09
                       Total CO2 (mol/kg)  =   1.075e+00
                         Temperature (°C)  =  25.00
                           Pressure (atm)  = 41.10
                  Electrical balance (eq)  =  -4.939e-09
 Percent error, 100*(Cat-|An|)/(Cat+|An|)  =  -0.00
                               Iterations  =  15
                                  Total H  = 1.110124e+02
                                  Total O  = 5.765669e+01

----------------------------Distribution of species----------------------------

                                               Log       Log       Log    mole V
   Species          Molality    Activity  Molality  Activity     Gamma   cm³/mol

   H+              7.085e-04   6.883e-04    -3.150    -3.162    -0.013      0.00
   OH-             1.543e-11   1.497e-11   -10.812   -10.825    -0.013     -3.96
   H2O             5.551e+01   9.820e-01     1.744    -0.008     0.000     18.04
C(-4)         2.524e-21
   CH4             2.524e-21   2.524e-21   -20.598   -20.598     0.000     35.51
C(4)          1.075e+00
   CO2             1.035e+00   1.035e+00     0.015     0.015     0.000     34.41
   (CO2)2          1.967e-02   1.967e-02    -1.706    -1.706     0.000     68.83
   HCO3-           7.085e-04   6.877e-04    -3.150    -3.163    -0.013     24.60
   CO3-2           5.529e-11   4.908e-11   -10.257   -10.309    -0.052     -3.72
H(0)          7.629e-15
   H2              3.815e-15   3.815e-15   -14.419   -14.418     0.000     28.59
O(0)          0.000e+00
   O2              0.000e+00   0.000e+00   -63.595   -63.595     0.000     30.34

------------------------------Saturation indices-------------------------------

  Phase               SI** log IAP   log K(298 K,  41 atm)

  CH4(g)          -17.77    -20.60   -2.83  CH4
  CO2(g)            1.51      0.02   -1.49  CO2	 Pressure  41.1 atm, phi 0.783
  H2(g)           -11.30    -14.42   -3.12  H2
  H2O(g)           -1.50     -0.01    1.49  H2O
  O2(g)           -60.68    -63.60   -2.91  O2

**For a gas, SI = log10(fugacity). Fugacity = pressure * phi / 1 atm.
  For ideal gases, phi = 1.

------------------
End of simulation.
------------------

------------------------------------
Reading input data for simulation 5.
------------------------------------

		SOLUTION 1
	 temp 25
	pressure   6.1100e+01
	EQUILIBRIUM_PHASES
	 CO2(g)   1.7860e+00
	END
-------------------------------------------
Beginning of initial solution calculations.
-------------------------------------------

Initial solution 1.	

-----------------------------Solution composition------------------------------

	Elements           Molality       Moles

	Pure water     

----------------------------Description of solution----------------------------

                                       pH  =   7.000    
                                       pe  =   4.000    
      Specific Conductance (µS/cm,  25°C)  = 0
                          Density (g/cm³)  =   0.99974
                               Volume (L)  =   1.00026
                        Viscosity (mPa s)  =   0.88925
                        Activity of water  =   1.000
                 Ionic strength (mol/kgw)  =   1.035e-07
                       Mass of water (kg)  =   1.000e+00
                 Total alkalinity (eq/kg)  =   6.823e-09
                         Temperature (°C)  =  25.00
                           Pressure (atm)  = 61.10
                  Electrical balance (eq)  =  -6.823e-09
 Percent error, 100*(Cat-|An|)/(Cat+|An|)  =  -3.30
                               Iterations  =   0
                                  Total H  = 1.110124e+02
                                  Total O  = 5.550622e+01

----------------------------Distribution of species----------------------------

                                               Log       Log       Log    mole V
   Species          Molality    Activity  Molality  Activity     Gamma   cm³/mol

   OH-             1.069e-07   1.068e-07    -6.971    -6.971    -0.000     -3.92
   H+              1.001e-07   1.000e-07    -7.000    -7.000    -0.000      0.00
   H2O             5.551e+01   1.000e+00     1.744     0.000     0.000     18.02
H(0)          1.320e-25
   H2              6.600e-26   6.600e-26   -25.180   -25.180     0.000     28.58
O(0)          0.000e+00
   O2              0.000e+00   0.000e+00   -42.074   -42.074     0.000     30.31

------------------------------Saturation indices-------------------------------

  Phase               SI** log IAP   log K(298 K,  61 atm)

  H2(g)           -22.05    -25.18   -3.13  H2
  H2O(g)           -1.48      0.00    1.48  H2O
  O2(g)           -39.15    -42.07   -2.92  O2

**For a gas, SI = log10(fugacity). Fugacity = pressure * phi / 1 atm.
  For ideal gases, phi = 1.

-----------------------------------------
Beginning of batch-reaction calculations.
-----------------------------------------

Reaction step 1.

Using solution 1.	
Using pure phase assemblage 1.	

-------------------------------Phase assemblage--------------------------------

                                                      Moles in assemblage
Phase               SI  log IAP  log K(T, P)   Initial       Final       Delta

CO2(g)            1.62     0.11     -1.50    1.000e+01   8.638e+00  -1.362e+00

-----------------------------Solution composition------------------------------

	Elements           Molality       Moles

	C                 1.362e+00   1.362e+00

----------------------------Description of solution----------------------------

                                       pH  =   3.109      Charge balance
                                       pe  =  14.686      Adjusted to redox equilibrium
      Specific Conductance (µS/cm,  25°C)  = 314
                          Density (g/cm³)  =   1.01227
                               Volume (L)  =   1.04710
                        Viscosity (mPa s)  =   0.88948
                        Activity of water  =   0.977
                 Ionic strength (mol/kgw)  =   8.023e-04
                       Mass of water (kg)  =   1.000e+00
                 Total alkalinity (eq/kg)  =   6.823e-09
                       Total CO2 (mol/kg)  =   1.362e+00
                         Temperature (°C)  =  25.00
                           Pressure (atm)  = 61.10
                  Electrical balance (eq)  =  -6.823e-09
 Percent error, 100*(Cat-|An|)/(Cat+|An|)  =  -0.00
                               Iterations  =  14
                                  Total H  = 1.110124e+02
                                  Total O  = 5.823074e+01

----------------------------Distribution of species----------------------------

                                               Log       Log       Log    mole V
   Species          Molality    Activity  Molality  Activity     Gamma   cm³/mol

   H+              8.023e-04   7.781e-04    -3.096    -3.109    -0.013      0.00
   OH-             1.385e-11   1.342e-11   -10.858   -10.872    -0.014     -3.89
   H2O             5.551e+01   9.774e-01     1.744    -0.010     0.000     18.02
C(-4)         0.000e+00
   CH4             0.000e+00   0.000e+00  -117.879  -117.879     0.000     35.54
C(4)          1.362e+00
   CO2             1.299e+00   1.300e+00     0.114     0.114     0.000     34.40
   (CO2)2          3.100e-02   3.100e-02    -1.509    -1.509     0.000     68.81
   HCO3-           8.023e-04   7.774e-04    -3.096    -3.109    -0.014     24.62
   CO3-2           5.697e-11   5.021e-11   -10.244   -10.299    -0.055     -3.53
H(0)          3.386e-39
   H2              1.693e-39   1.693e-39   -38.771   -38.771     0.000     28.58
O(0)          2.447e-15
   O2              1.224e-15   1.224e-15   -14.912   -14.912     0.000     30.31

------------------------------Saturation indices-------------------------------

  Phase               SI** log IAP   log K(298 K,  61 atm)

  CH4(g)         -115.04   -117.88   -2.84  CH4
  CO2(g)            1.62      0.11   -1.50  CO2	 Pressure  61.1 atm, phi 0.680
  H2(g)           -35.64    -38.77   -3.13  H2
  H2O(g)           -1.49     -0.01    1.48  H2O
  O2(g)           -11.99    -14.91   -2.92  O2

**For a gas, SI = log10(fugacity). Fugacity = pressure * phi / 1 atm.
  For ideal gases, phi = 1.

------------------
End of simulation.
------------------

------------------------------------
Reading input data for simulation 6.
------------------------------------

		SOLUTION 1
	 temp 25
	pressure   8.1100e+01
	EQUILIBRIUM_PHASES
	 CO2(g)   1.9090e+00
	END
-------------------------------------------
Beginning of initial solution calculations.
-------------------------------------------

Initial solution 1.	

-----------------------------Solution composition------------------------------

	Elements           Molality       Moles

	Pure water     

----------------------------Description of solution----------------------------

                                       pH  =   7.000    
                                       pe  =   4.000    
      Specific Conductance (µS/cm,  25°C)  = 0
                          Density (g/cm³)  =   1.00064
                               Volume (L)  =   0.99936
                        Viscosity (mPa s)  =   0.88901
                        Activity of water  =   1.000
                 Ionic strength (mol/kgw)  =   1.044e-07
                       Mass of water (kg)  =   1.000e+00
                 Total alkalinity (eq/kg)  =   8.726e-09
                         Temperature (°C)  =  25.00
                           Pressure (atm)  = 81.10
                  Electrical balance (eq)  =  -8.726e-09
 Percent error, 100*(Cat-|An|)/(Cat+|An|)  =  -4.18
                               Iterations  =   0
                                  Total H  = 1.110124e+02
                                  Total O  = 5.550622e+01

----------------------------Distribution of species----------------------------

                                               Log       Log       Log    mole V
   Species          Molality    Activity  Molality  Activity     Gamma   cm³/mol

   OH-             1.088e-07   1.087e-07    -6.963    -6.964    -0.000     -3.84
   H+              1.001e-07   1.000e-07    -7.000    -7.000    -0.000      0.00
   H2O             5.551e+01   1.000e+00     1.744     0.000     0.000     18.00
H(0)          1.289e-25
   H2              6.447e-26   6.447e-26   -25.191   -25.191     0.000     28.57
O(0)          0.000e+00
   O2              0.000e+00   0.000e+00   -42.072   -42.072     0.000     30.28

------------------------------Saturation indices-------------------------------

  Phase               SI** log IAP   log K(298 K,  81 atm)

  H2(g)           -22.05    -25.19   -3.14  H2
  H2O(g)           -1.48      0.00    1.48  H2O
  O2(g)           -39.14    -42.07   -2.94  O2

**For a gas, SI = log10(fugacity). Fugacity = pressure * phi / 1 atm.
  For ideal gases, phi = 1.

-----------------------------------------
Beginning of batch-reaction calculations.
-----------------------------------------

Reaction step 1.

Using solution 1.	
Using pure phase assemblage 1.	

-------------------------------Phase assemblage--------------------------------

                                                      Moles in assemblage
Phase               SI  log IAP  log K(T, P)   Initial       Final       Delta

CO2(g)            1.65     0.13     -1.52    1.000e+01   8.583e+00  -1.417e+00

-----------------------------Solution composition------------------------------

	Elements           Molality       Moles

	C                 1.417e+00   1.417e+00

----------------------------Description of solution----------------------------

                                       pH  =   3.096      Charge balance
                                       pe  =   2.331      Adjusted to redox equilibrium
      Specific Conductance (µS/cm,  25°C)  = 323
                          Density (g/cm³)  =   1.01363
                               Volume (L)  =   1.04807
                        Viscosity (mPa s)  =   0.88925
                        Activity of water  =   0.976
                 Ionic strength (mol/kgw)  =   8.267e-04
                       Mass of water (kg)  =   1.000e+00
                 Total alkalinity (eq/kg)  =   8.726e-09
                       Total CO2 (mol/kg)  =   1.417e+00
                         Temperature (°C)  =  25.00
                           Pressure (atm)  = 81.10
                  Electrical balance (eq)  =  -8.725e-09
 Percent error, 100*(Cat-|An|)/(Cat+|An|)  =  -0.00
                               Iterations  =  14
                                  Total H  = 1.110124e+02
                                  Total O  = 5.833972e+01

----------------------------Distribution of species----------------------------

                                               Log       Log       Log    mole V
   Species          Molality    Activity  Molality  Activity     Gamma   cm³/mol

   H+              8.267e-04   8.015e-04    -3.083    -3.096    -0.013      0.00
   OH-             1.368e-11   1.324e-11   -10.864   -10.878    -0.014     -3.82
   H2O             5.551e+01   9.765e-01     1.744    -0.010     0.000     18.00
C(-4)         1.169e-19
   CH4             1.169e-19   1.169e-19   -18.932   -18.932     0.000     35.56
C(4)          1.417e+00
   CO2             1.349e+00   1.349e+00     0.130     0.130     0.000     34.40
   (CO2)2          3.341e-02   3.342e-02    -1.476    -1.476     0.000     68.79
   HCO3-           8.267e-04   8.007e-04    -3.083    -3.097    -0.014     24.65
   CO3-2           5.836e-11   5.135e-11   -10.234   -10.289    -0.056     -3.35
H(0)          1.800e-14
   H2              8.999e-15   9.000e-15   -14.046   -14.046     0.000     28.57
O(0)          0.000e+00
   O2              0.000e+00   0.000e+00   -64.382   -64.382     0.000     30.28

------------------------------Saturation indices-------------------------------

  Phase               SI** log IAP   log K(298 K,  81 atm)

  CH4(g)          -16.08    -18.93   -2.85  CH4
  CO2(g)            1.65      0.13   -1.52  CO2	 Pressure  81.1 atm, phi 0.547
  H2(g)           -10.90    -14.05   -3.14  H2
  H2O(g)           -1.49     -0.01    1.48  H2O
  O2(g)           -61.45    -64.38   -2.94  O2

**For a gas, SI = log10(fugacity). Fugacity = pressure * phi / 1 atm.
  For ideal gases, phi = 1.

------------------
End of simulation.
------------------

------------------------------------
Reading input data for simulation 7.
------------------------------------

		SOLUTION 1
	 temp 25
	pressure   1.0110e+02
	EQUILIBRIUM_PHASES
	 CO2(g)   2.0048e+00
	END
-------------------------------------------
Beginning of initial solution calculations.
-------------------------------------------

Initial solution 1.	

-----------------------------Solution composition------------------------------

	Elements           Molality       Moles

	Pure water     

----------------------------Description of solution----------------------------

                                       pH  =   7.000    
                                       pe  =   4.000    
      Specific Conductance (µS/cm,  25°C)  = 0
                          Density (g/cm³)  =   1.00153
                               Volume (L)  =   0.99847
                        Viscosity (mPa s)  =   0.88879
                        Activity of water  =   1.000
                 Ionic strength (mol/kgw)  =   1.054e-07
                       Mass of water (kg)  =   1.000e+00
                 Total alkalinity (eq/kg)  =   1.065e-08
                         Temperature (°C)  =  25.00
                           Pressure (atm)  = 101.10
                  Electrical balance (eq)  =  -1.065e-08
 Percent error, 100*(Cat-|An|)/(Cat+|An|)  =  -5.05
                               Iterations  =   0
                                  Total H  = 1.110124e+02
                                  Total O  = 5.550622e+01

----------------------------Distribution of species----------------------------

                                               Log       Log       Log    mole V
   Species          Molality    Activity  Molality  Activity     Gamma   cm³/mol

   OH-             1.107e-07   1.107e-07    -6.956    -6.956    -0.000     -3.77
   H+              1.001e-07   1.000e-07    -7.000    -7.000    -0.000      0.00
   H2O             5.551e+01   1.000e+00     1.744     0.000     0.000     17.99
H(0)          1.260e-25
   H2              6.299e-26   6.299e-26   -25.201   -25.201     0.000     28.56
O(0)          0.000e+00
   O2              0.000e+00   0.000e+00   -42.070   -42.070     0.000     30.26

------------------------------Saturation indices-------------------------------

  Phase               SI** log IAP   log K(298 K, 101 atm)

  H2(g)           -22.05    -25.20   -3.15  H2
  H2O(g)           -1.47      0.00    1.47  H2O
  O2(g)           -39.12    -42.07   -2.95  O2

**For a gas, SI = log10(fugacity). Fugacity = pressure * phi / 1 atm.
  For ideal gases, phi = 1.

-----------------------------------------
Beginning of batch-reaction calculations.
-----------------------------------------

Reaction step 1.

Using solution 1.	
Using pure phase assemblage 1.	

-------------------------------Phase assemblage--------------------------------

                                                      Moles in assemblage
Phase               SI  log IAP  log K(T, P)   Initial       Final       Delta

CO2(g)            1.67     0.14     -1.53    1.000e+01   8.554e+00  -1.446e+00

-----------------------------Solution composition------------------------------

	Elements           Molality       Moles

	C                 1.446e+00   1.446e+00

----------------------------Description of solution----------------------------

                                       pH  =   3.087      Charge balance
                                       pe  =   2.431      Adjusted to redox equilibrium
      Specific Conductance (µS/cm,  25°C)  = 330
                          Density (g/cm³)  =   1.01476
                               Volume (L)  =   1.04816
                        Viscosity (mPa s)  =   0.88904
                        Activity of water  =   0.976
                 Ionic strength (mol/kgw)  =   8.442e-04
                       Mass of water (kg)  =   1.000e+00
                 Total alkalinity (eq/kg)  =   1.065e-08
                       Total CO2 (mol/kg)  =   1.446e+00
                         Temperature (°C)  =  25.00
                           Pressure (atm)  = 101.10
                  Electrical balance (eq)  =  -1.065e-08
 Percent error, 100*(Cat-|An|)/(Cat+|An|)  =  -0.00
                               Iterations  =  14
                                  Total H  = 1.110124e+02
                                  Total O  = 5.839760e+01

----------------------------Distribution of species----------------------------

                                               Log       Log       Log    mole V
   Species          Molality    Activity  Molality  Activity     Gamma   cm³/mol

   H+              8.442e-04   8.182e-04    -3.074    -3.087    -0.014      0.00
   OH-             1.364e-11   1.320e-11   -10.865   -10.880    -0.014     -3.75
   H2O             5.551e+01   9.760e-01     1.744    -0.011     0.000     17.99
C(-4)         2.163e-20
   CH4             2.163e-20   2.163e-20   -19.665   -19.665     0.000     35.59
C(4)          1.446e+00
   CO2             1.375e+00   1.376e+00     0.138     0.138     0.000     34.39
   (CO2)2          3.473e-02   3.473e-02    -1.459    -1.459     0.000     68.77
   HCO3-           8.442e-04   8.174e-04    -3.074    -3.088    -0.014     24.68
   CO3-2           5.974e-11   5.250e-11   -10.224   -10.280    -0.056     -3.17
H(0)          1.156e-14
   H2              5.781e-15   5.782e-15   -14.238   -14.238     0.000     28.56
O(0)          0.000e+00
   O2              0.000e+00   0.000e+00   -64.017   -64.017     0.000     30.26

------------------------------Saturation indices-------------------------------

  Phase               SI** log IAP   log K(298 K, 101 atm)

  CH4(g)          -16.80    -19.66   -2.87  CH4
  CO2(g)            1.67      0.14   -1.53  CO2	 Pressure 101.1 atm, phi 0.460
  H2(g)           -11.09    -14.24   -3.15  H2
  H2O(g)           -1.48     -0.01    1.47  H2O
  O2(g)           -61.07    -64.02   -2.95  O2

**For a gas, SI = log10(fugacity). Fugacity = pressure * phi / 1 atm.
  For ideal gases, phi = 1.

------------------
End of simulation.
------------------

------------------------------------
Reading input data for simulation 8.
------------------------------------

		SOLUTION 1
	 temp 25
	pressure   1.2110e+02
	EQUILIBRIUM_PHASES
	 CO2(g)   2.0831e+00
	END
-------------------------------------------
Beginning of initial solution calculations.
-------------------------------------------

Initial solution 1.	

-----------------------------Solution composition------------------------------

	Elements           Molality       Moles

	Pure water     

----------------------------Description of solution----------------------------

                                       pH  =   7.000    
                                       pe  =   4.000    
      Specific Conductance (µS/cm,  25°C)  = 0
                          Density (g/cm³)  =   1.00242
                               Volume (L)  =   0.99758
                        Viscosity (mPa s)  =   0.88859
                        Activity of water  =   1.000
                 Ionic strength (mol/kgw)  =   1.063e-07
                       Mass of water (kg)  =   1.000e+00
                 Total alkalinity (eq/kg)  =   1.259e-08
                         Temperature (°C)  =  25.00
                           Pressure (atm)  = 121.10
                  Electrical balance (eq)  =  -1.259e-08
 Percent error, 100*(Cat-|An|)/(Cat+|An|)  =  -5.92
                               Iterations  =   0
                                  Total H  = 1.110124e+02
                                  Total O  = 5.550622e+01

----------------------------Distribution of species----------------------------

                                               Log       Log       Log    mole V
   Species          Molality    Activity  Molality  Activity     Gamma   cm³/mol

   OH-             1.126e-07   1.126e-07    -6.948    -6.948    -0.000     -3.70
   H+              1.001e-07   1.000e-07    -7.000    -7.000    -0.000      0.00
   H2O             5.551e+01   1.000e+00     1.744     0.000     0.000     17.97
H(0)          1.231e-25
   H2              6.154e-26   6.154e-26   -25.211   -25.211     0.000     28.55
O(0)          0.000e+00
   O2              0.000e+00   0.000e+00   -42.068   -42.068     0.000     30.23

------------------------------Saturation indices-------------------------------

  Phase               SI** log IAP   log K(298 K, 121 atm)

  H2(g)           -22.05    -25.21   -3.16  H2
  H2O(g)           -1.46      0.00    1.46  H2O
  O2(g)           -39.11    -42.07   -2.96  O2

**For a gas, SI = log10(fugacity). Fugacity = pressure * phi / 1 atm.
  For ideal gases, phi = 1.

-----------------------------------------
Beginning of batch-reaction calculations.
-----------------------------------------

Reaction step 1.

Using solution 1.	
Using pure phase assemblage 1.	

-------------------------------Phase assemblage--------------------------------

                                                      Moles in assemblage
Phase               SI  log IAP  log K(T, P)   Initial       Final       Delta

CO2(g)            1.69     0.15     -1.54    1.000e+01   8.529e+00  -1.471e+00

-----------------------------Solution composition------------------------------

	Elements           Molality       Moles

	C                 1.471e+00   1.471e+00

----------------------------Description of solution----------------------------

                                       pH  =   3.079      Charge balance
                                       pe  =   2.339      Adjusted to redox equilibrium
      Specific Conductance (µS/cm,  25°C)  = 337
                          Density (g/cm³)  =   1.01585
                               Volume (L)  =   1.04812
                        Viscosity (mPa s)  =   0.88883
                        Activity of water  =   0.976
                 Ionic strength (mol/kgw)  =   8.608e-04
                       Mass of water (kg)  =   1.000e+00
                 Total alkalinity (eq/kg)  =   1.259e-08
                       Total CO2 (mol/kg)  =   1.471e+00
                         Temperature (°C)  =  25.00
                           Pressure (atm)  = 121.10
                  Electrical balance (eq)  =  -1.259e-08
 Percent error, 100*(Cat-|An|)/(Cat+|An|)  =  -0.00
                               Iterations  =  14
                                  Total H  = 1.110124e+02
                                  Total O  = 5.844784e+01

----------------------------Distribution of species----------------------------

                                               Log       Log       Log    mole V
   Species          Molality    Activity  Molality  Activity     Gamma   cm³/mol

   H+              8.608e-04   8.341e-04    -3.065    -3.079    -0.014      0.00
   OH-             1.361e-11   1.317e-11   -10.866   -10.881    -0.014     -3.68
   H2O             5.551e+01   9.756e-01     1.744    -0.011     0.000     17.97
C(-4)         1.378e-19
   CH4             1.378e-19   1.379e-19   -18.861   -18.861     0.000     35.62
C(4)          1.471e+00
   CO2             1.398e+00   1.398e+00     0.146     0.146     0.000     34.38
   (CO2)2          3.589e-02   3.589e-02    -1.445    -1.445     0.000     68.75
   HCO3-           8.608e-04   8.332e-04    -3.065    -3.079    -0.014     24.70
   CO3-2           6.114e-11   5.367e-11   -10.214   -10.270    -0.057     -3.00
H(0)          1.801e-14
   H2              9.003e-15   9.005e-15   -14.046   -14.046     0.000     28.55
O(0)          0.000e+00
   O2              0.000e+00   0.000e+00   -64.420   -64.420     0.000     30.23

------------------------------Saturation indices-------------------------------

  Phase               SI** log IAP   log K(298 K, 121 atm)

  CH4(g)          -15.98    -18.86   -2.88  CH4
  CO2(g)            1.69      0.15   -1.54  CO2	 Pressure 121.1 atm, phi 0.402
  H2(g)           -10.88    -14.05   -3.16  H2
  H2O(g)           -1.48     -0.01    1.46  H2O
  O2(g)           -61.46    -64.42   -2.96  O2

**For a gas, SI = log10(fugacity). Fugacity = pressure * phi / 1 atm.
  For ideal gases, phi = 1.

------------------
End of simulation.
------------------

------------------------------------
Reading input data for simulation 9.
------------------------------------

		SOLUTION 1
	 temp 25
	pressure   1.4110e+02
	EQUILIBRIUM_PHASES
	 CO2(g)   2.1495e+00
	END
-------------------------------------------
Beginning of initial solution calculations.
-------------------------------------------

Initial solution 1.	

-----------------------------Solution composition------------------------------

	Elements           Molality       Moles

	Pure water     

----------------------------Description of solution----------------------------

                                       pH  =   7.000    
                                       pe  =   4.000    
      Specific Conductance (µS/cm,  25°C)  = 0
                          Density (g/cm³)  =   1.00331
                               Volume (L)  =   0.99670
                        Viscosity (mPa s)  =   0.88839
                        Activity of water  =   1.000
                 Ionic strength (mol/kgw)  =   1.073e-07
                       Mass of water (kg)  =   1.000e+00
                 Total alkalinity (eq/kg)  =   1.454e-08
                         Temperature (°C)  =  25.00
                           Pressure (atm)  = 141.10
                  Electrical balance (eq)  =  -1.454e-08
 Percent error, 100*(Cat-|An|)/(Cat+|An|)  =  -6.78
                               Iterations  =   0
                                  Total H  = 1.110124e+02
                                  Total O  = 5.550622e+01

----------------------------Distribution of species----------------------------

                                               Log       Log       Log    mole V
   Species          Molality    Activity  Molality  Activity     Gamma   cm³/mol

   OH-             1.146e-07   1.146e-07    -6.941    -6.941    -0.000     -3.63
   H+              1.001e-07   1.000e-07    -7.000    -7.000    -0.000      0.00
   H2O             5.551e+01   1.000e+00     1.744     0.000     0.000     17.96
H(0)          1.202e-25
   H2              6.012e-26   6.012e-26   -25.221   -25.221     0.000     28.54
O(0)          0.000e+00
   O2              0.000e+00   0.000e+00   -42.066   -42.066     0.000     30.20

------------------------------Saturation indices-------------------------------

  Phase               SI** log IAP   log K(298 K, 141 atm)

  H2(g)           -22.05    -25.22   -3.17  H2
  H2O(g)           -1.46      0.00    1.46  H2O
  O2(g)           -39.10    -42.07   -2.97  O2

**For a gas, SI = log10(fugacity). Fugacity = pressure * phi / 1 atm.
  For ideal gases, phi = 1.

-----------------------------------------
Beginning of batch-reaction calculations.
-----------------------------------------

Reaction step 1.

Using solution 1.	
Using pure phase assemblage 1.	

-------------------------------Phase assemblage--------------------------------

                                                      Moles in assemblage
Phase               SI  log IAP  log K(T, P)   Initial       Final       Delta

CO2(g)            1.71     0.15     -1.55    1.000e+01   8.506e+00  -1.494e+00

-----------------------------Solution composition------------------------------

	Elements           Molality       Moles

	C                 1.494e+00   1.494e+00

----------------------------Description of solution----------------------------

                                       pH  =   3.071      Charge balance
                                       pe  =   2.831      Adjusted to redox equilibrium
      Specific Conductance (µS/cm,  25°C)  = 343
                          Density (g/cm³)  =   1.01691
                               Volume (L)  =   1.04801
                        Viscosity (mPa s)  =   0.88864
                        Activity of water  =   0.975
                 Ionic strength (mol/kgw)  =   8.769e-04
                       Mass of water (kg)  =   1.000e+00
                 Total alkalinity (eq/kg)  =   1.454e-08
                       Total CO2 (mol/kg)  =   1.494e+00
                         Temperature (°C)  =  25.00
                           Pressure (atm)  = 141.10
                  Electrical balance (eq)  =  -1.454e-08
 Percent error, 100*(Cat-|An|)/(Cat+|An|)  =  -0.00
                               Iterations  =  14
                                  Total H  = 1.110124e+02
                                  Total O  = 5.849337e+01

----------------------------Distribution of species----------------------------

                                               Log       Log       Log    mole V
   Species          Molality    Activity  Molality  Activity     Gamma   cm³/mol

   H+              8.769e-04   8.495e-04    -3.057    -3.071    -0.014      0.00
   OH-             1.359e-11   1.315e-11   -10.867   -10.881    -0.015     -3.61
   H2O             5.551e+01   9.752e-01     1.744    -0.011     0.000     17.96
C(-4)         1.803e-23
   CH4             1.803e-23   1.803e-23   -22.744   -22.744     0.000     35.64
C(4)          1.494e+00
   CO2             1.419e+00   1.419e+00     0.152     0.152     0.000     34.37
   (CO2)2          3.695e-02   3.696e-02    -1.432    -1.432     0.000     68.73
   HCO3-           8.769e-04   8.486e-04    -3.057    -3.071    -0.014     24.73
   CO3-2           6.255e-11   5.485e-11   -10.204   -10.261    -0.057     -2.82
H(0)          1.888e-15
   H2              9.442e-16   9.444e-16   -15.025   -15.025     0.000     28.54
O(0)          0.000e+00
   O2              0.000e+00   0.000e+00   -62.480   -62.480     0.000     30.20

------------------------------Saturation indices-------------------------------

  Phase               SI** log IAP   log K(298 K, 141 atm)

  CH4(g)          -19.85    -22.74   -2.89  CH4
  CO2(g)            1.71      0.15   -1.55  CO2	 Pressure 141.1 atm, phi 0.360
  H2(g)           -11.85    -15.02   -3.17  H2
  H2O(g)           -1.47     -0.01    1.46  H2O
  O2(g)           -59.51    -62.48   -2.97  O2

**For a gas, SI = log10(fugacity). Fugacity = pressure * phi / 1 atm.
  For ideal gases, phi = 1.

------------------
End of simulation.
------------------

-------------------------------------
Reading input data for simulation 10.
-------------------------------------

		SOLUTION 1
	 temp 25
	pressure   1.6110e+02
	EQUILIBRIUM_PHASES
	 CO2(g)   2.2071e+00
	END
-------------------------------------------
Beginning of initial solution calculations.
-------------------------------------------

Initial solution 1.	

-----------------------------Solution composition------------------------------

	Elements           Molality       Moles

	Pure water     

----------------------------Description of solution----------------------------

                                       pH  =   7.000    
                                       pe  =   4.000    
      Specific Conductance (µS/cm,  25°C)  = 0
                          Density (g/cm³)  =   1.00419
                               Volume (L)  =   0.99582
                        Viscosity (mPa s)  =   0.88821
                        Activity of water  =   1.000
                 Ionic strength (mol/kgw)  =   1.083e-07
                       Mass of water (kg)  =   1.000e+00
                 Total alkalinity (eq/kg)  =   1.652e-08
                         Temperature (°C)  =  25.00
                           Pressure (atm)  = 161.10
                  Electrical balance (eq)  =  -1.652e-08
 Percent error, 100*(Cat-|An|)/(Cat+|An|)  =  -7.63
                               Iterations  =   0
                                  Total H  = 1.110124e+02
                                  Total O  = 5.550622e+01

----------------------------Distribution of species----------------------------

                                               Log       Log       Log    mole V
   Species          Molality    Activity  Molality  Activity     Gamma   cm³/mol

   OH-             1.166e-07   1.165e-07    -6.933    -6.934    -0.000     -3.56
   H+              1.001e-07   1.000e-07    -7.000    -7.000    -0.000      0.00
   H2O             5.551e+01   1.000e+00     1.744     0.000     0.000     17.94
H(0)          1.175e-25
   H2              5.874e-26   5.874e-26   -25.231   -25.231     0.000     28.53
O(0)          0.000e+00
   O2              0.000e+00   0.000e+00   -42.064   -42.064     0.000     30.17

------------------------------Saturation indices-------------------------------

  Phase               SI** log IAP   log K(298 K, 161 atm)

  H2(g)           -22.05    -25.23   -3.18  H2
  H2O(g)           -1.45      0.00    1.45  H2O
  O2(g)           -39.09    -42.06   -2.98  O2

**For a gas, SI = log10(fugacity). Fugacity = pressure * phi / 1 atm.
  For ideal gases, phi = 1.

-----------------------------------------
Beginning of batch-reaction calculations.
-----------------------------------------

Reaction step 1.

Using solution 1.	
Using pure phase assemblage 1.	

-------------------------------Phase assemblage--------------------------------

                                                      Moles in assemblage
Phase               SI  log IAP  log K(T, P)   Initial       Final       Delta

CO2(g)            1.72     0.16     -1.57    1.000e+01   8.485e+00  -1.515e+00

-----------------------------Solution composition------------------------------

	Elements           Molality       Moles

	C                 1.515e+00   1.515e+00

----------------------------Description of solution----------------------------

                                       pH  =   3.063      Charge balance
                                       pe  =   3.470      Adjusted to redox equilibrium
      Specific Conductance (µS/cm,  25°C)  = 350
                          Density (g/cm³)  =   1.01796
                               Volume (L)  =   1.04783
                        Viscosity (mPa s)  =   0.88847
                        Activity of water  =   0.975
                 Ionic strength (mol/kgw)  =   8.927e-04
                       Mass of water (kg)  =   1.000e+00
                 Total alkalinity (eq/kg)  =   1.652e-08
                       Total CO2 (mol/kg)  =   1.515e+00
                         Temperature (°C)  =  25.00
                           Pressure (atm)  = 161.10
                  Electrical balance (eq)  =  -1.652e-08
 Percent error, 100*(Cat-|An|)/(Cat+|An|)  =  -0.00
                               Iterations  =  14
                                  Total H  = 1.110124e+02
                                  Total O  = 5.853527e+01

----------------------------Distribution of species----------------------------

                                               Log       Log       Log    mole V
   Species          Molality    Activity  Molality  Activity     Gamma   cm³/mol

   H+              8.927e-04   8.645e-04    -3.049    -3.063    -0.014      0.00
   OH-             1.359e-11   1.314e-11   -10.867   -10.882    -0.015     -3.54
   H2O             5.551e+01   9.749e-01     1.744    -0.011     0.000     17.94
C(-4)         1.569e-28
   CH4             1.569e-28   1.569e-28   -27.804   -27.804     0.000     35.66
C(4)          1.515e+00
   CO2             1.438e+00   1.438e+00     0.158     0.158     0.000     34.36
   (CO2)2          3.795e-02   3.795e-02    -1.421    -1.421     0.000     68.72
   HCO3-           8.927e-04   8.636e-04    -3.049    -3.064    -0.014     24.75
   CO3-2           6.397e-11   5.605e-11   -10.194   -10.251    -0.057     -2.65
H(0)          1.006e-16
   H2              5.031e-17   5.032e-17   -16.298   -16.298     0.000     28.53
O(0)          0.000e+00
   O2              0.000e+00   0.000e+00   -59.952   -59.952     0.000     30.17

------------------------------Saturation indices-------------------------------

  Phase               SI** log IAP   log K(298 K, 161 atm)

  CH4(g)          -24.90    -27.80   -2.90  CH4
  CO2(g)            1.72      0.16   -1.57  CO2	 Pressure 161.1 atm, phi 0.328
  H2(g)           -13.12    -16.30   -3.18  H2
  H2O(g)           -1.46     -0.01    1.45  H2O
  O2(g)           -56.97    -59.95   -2.98  O2

**For a gas, SI = log10(fugacity). Fugacity = pressure * phi / 1 atm.
  For ideal gases, phi = 1.

------------------
End of simulation.
------------------

-------------------------------------
Reading input data for simulation 11.
-------------------------------------

		SOLUTION 1
	 temp 25
	pressure   1.8110e+02
	EQUILIBRIUM_PHASES
	 CO2(g)   2.2579e+00
	END
-------------------------------------------
Beginning of initial solution calculations.
-------------------------------------------

Initial solution 1.	

-----------------------------Solution composition------------------------------

	Elements           Molality       Moles

	Pure water     

----------------------------Description of solution----------------------------

                                       pH  =   7.000    
                                       pe  =   4.000    
      Specific Conductance (µS/cm,  25°C)  = 0
                          Density (g/cm³)  =   1.00508
                               Volume (L)  =   0.99495
                        Viscosity (mPa s)  =   0.88805
                        Activity of water  =   1.000
                 Ionic strength (mol/kgw)  =   1.093e-07
                       Mass of water (kg)  =   1.000e+00
                 Total alkalinity (eq/kg)  =   1.851e-08
                         Temperature (°C)  =  25.00
                           Pressure (atm)  = 181.10
                  Electrical balance (eq)  =  -1.851e-08
 Percent error, 100*(Cat-|An|)/(Cat+|An|)  =  -8.47
                               Iterations  =   0
                                  Total H  = 1.110124e+02
                                  Total O  = 5.550622e+01

----------------------------Distribution of species----------------------------

                                               Log       Log       Log    mole V
   Species          Molality    Activity  Molality  Activity     Gamma   cm³/mol

   OH-             1.186e-07   1.185e-07    -6.926    -6.926    -0.000     -3.50
   H+              1.001e-07   1.000e-07    -7.000    -7.000    -0.000      0.00
   H2O             5.551e+01   1.000e+00     1.744     0.000     0.000     17.92
H(0)          1.148e-25
   H2              5.739e-26   5.739e-26   -25.241   -25.241     0.000     28.52
O(0)          0.000e+00
   O2              0.000e+00   0.000e+00   -42.062   -42.062     0.000     30.15

------------------------------Saturation indices-------------------------------

  Phase               SI** log IAP   log K(298 K, 181 atm)

  H2(g)           -22.05    -25.24   -3.19  H2
  H2O(g)           -1.45      0.00    1.45  H2O
  O2(g)           -39.07    -42.06   -2.99  O2

**For a gas, SI = log10(fugacity). Fugacity = pressure * phi / 1 atm.
  For ideal gases, phi = 1.

-----------------------------------------
Beginning of batch-reaction calculations.
-----------------------------------------

Reaction step 1.

Using solution 1.	
Using pure phase assemblage 1.	

-------------------------------Phase assemblage--------------------------------

                                                      Moles in assemblage
Phase               SI  log IAP  log K(T, P)   Initial       Final       Delta

CO2(g)            1.74     0.16     -1.58    1.000e+01   8.466e+00  -1.534e+00

-----------------------------Solution composition------------------------------

	Elements           Molality       Moles

	C                 1.534e+00   1.534e+00

----------------------------Description of solution----------------------------

                                       pH  =   3.056      Charge balance
                                       pe  =   2.942      Adjusted to redox equilibrium
      Specific Conductance (µS/cm,  25°C)  = 356
                          Density (g/cm³)  =   1.01899
                               Volume (L)  =   1.04761
                        Viscosity (mPa s)  =   0.88830
                        Activity of water  =   0.975
                 Ionic strength (mol/kgw)  =   9.082e-04
                       Mass of water (kg)  =   1.000e+00
                 Total alkalinity (eq/kg)  =   1.851e-08
                       Total CO2 (mol/kg)  =   1.534e+00
                         Temperature (°C)  =  25.00
                           Pressure (atm)  = 181.10
                  Electrical balance (eq)  =  -1.851e-08
 Percent error, 100*(Cat-|An|)/(Cat+|An|)  =  -0.00
                               Iterations  =  14
                                  Total H  = 1.110124e+02
                                  Total O  = 5.857410e+01

----------------------------Distribution of species----------------------------

                                               Log       Log       Log    mole V
   Species          Molality    Activity  Molality  Activity     Gamma   cm³/mol

   H+              9.081e-04   8.794e-04    -3.042    -3.056    -0.014      0.00
   OH-             1.358e-11   1.313e-11   -10.867   -10.882    -0.015     -3.47
   H2O             5.551e+01   9.746e-01     1.744    -0.011     0.000     17.92
C(-4)         2.985e-24
   CH4             2.985e-24   2.986e-24   -23.525   -23.525     0.000     35.69
C(4)          1.534e+00
   CO2             1.455e+00   1.456e+00     0.163     0.163     0.000     34.35
   (CO2)2          3.888e-02   3.889e-02    -1.410    -1.410     0.000     68.70
   HCO3-           9.082e-04   8.784e-04    -3.042    -3.056    -0.014     24.78
   CO3-2           6.542e-11   5.726e-11   -10.184   -10.242    -0.058     -2.48
H(0)          1.160e-15
   H2              5.798e-16   5.799e-16   -15.237   -15.237     0.000     28.52
O(0)          0.000e+00
   O2              0.000e+00   0.000e+00   -62.093   -62.093     0.000     30.15

------------------------------Saturation indices-------------------------------

  Phase               SI** log IAP   log K(298 K, 181 atm)

  CH4(g)          -20.61    -23.52   -2.92  CH4
  CO2(g)            1.74      0.16   -1.58  CO2	 Pressure 181.1 atm, phi 0.304
  H2(g)           -12.04    -15.24   -3.19  H2
  H2O(g)           -1.46     -0.01    1.45  H2O
  O2(g)           -59.10    -62.09   -2.99  O2

**For a gas, SI = log10(fugacity). Fugacity = pressure * phi / 1 atm.
  For ideal gases, phi = 1.

------------------
End of simulation.
------------------

-------------------------------------
Reading input data for simulation 12.
-------------------------------------

		SOLUTION 1
	 temp 25
	pressure   2.0110e+02
	EQUILIBRIUM_PHASES
	 CO2(g)   2.3034e+00
	END
-------------------------------------------
Beginning of initial solution calculations.
-------------------------------------------

Initial solution 1.	

-----------------------------Solution composition------------------------------

	Elements           Molality       Moles

	Pure water     

----------------------------Description of solution----------------------------

                                       pH  =   7.000    
                                       pe  =   4.000    
      Specific Conductance (µS/cm,  25°C)  = 0
                          Density (g/cm³)  =   1.00596
                               Volume (L)  =   0.99408
                        Viscosity (mPa s)  =   0.88789
                        Activity of water  =   1.000
                 Ionic strength (mol/kgw)  =   1.103e-07
                       Mass of water (kg)  =   1.000e+00
                 Total alkalinity (eq/kg)  =   2.053e-08
                         Temperature (°C)  =  25.00
                           Pressure (atm)  = 201.10
                  Electrical balance (eq)  =  -2.053e-08
 Percent error, 100*(Cat-|An|)/(Cat+|An|)  =  -9.30
                               Iterations  =   0
                                  Total H  = 1.110124e+02
                                  Total O  = 5.550622e+01

----------------------------Distribution of species----------------------------

                                               Log       Log       Log    mole V
   Species          Molality    Activity  Molality  Activity     Gamma   cm³/mol

   OH-             1.206e-07   1.205e-07    -6.919    -6.919    -0.000     -3.43
   H+              1.001e-07   1.000e-07    -7.000    -7.000    -0.000      0.00
   H2O             5.551e+01   1.000e+00     1.744     0.000     0.000     17.91
H(0)          1.121e-25
   H2              5.607e-26   5.607e-26   -25.251   -25.251     0.000     28.52
O(0)          0.000e+00
   O2              0.000e+00   0.000e+00   -42.060   -42.060     0.000     30.12

------------------------------Saturation indices-------------------------------

  Phase               SI** log IAP   log K(298 K, 201 atm)

  H2(g)           -22.05    -25.25   -3.20  H2
  H2O(g)           -1.44      0.00    1.44  H2O
  O2(g)           -39.06    -42.06   -3.00  O2

**For a gas, SI = log10(fugacity). Fugacity = pressure * phi / 1 atm.
  For ideal gases, phi = 1.

-----------------------------------------
Beginning of batch-reaction calculations.
-----------------------------------------

Reaction step 1.

Using solution 1.	
Using pure phase assemblage 1.	

-------------------------------Phase assemblage--------------------------------

                                                      Moles in assemblage
Phase               SI  log IAP  log K(T, P)   Initial       Final       Delta

CO2(g)            1.76     0.17     -1.59    1.000e+01   8.448e+00  -1.552e+00

-----------------------------Solution composition------------------------------

	Elements           Molality       Moles

	C                 1.552e+00   1.552e+00

----------------------------Description of solution----------------------------

                                       pH  =   3.049      Charge balance
                                       pe  =   2.854      Adjusted to redox equilibrium
      Specific Conductance (µS/cm,  25°C)  = 362
                          Density (g/cm³)  =   1.02001
                               Volume (L)  =   1.04735
                        Viscosity (mPa s)  =   0.88816
                        Activity of water  =   0.974
                 Ionic strength (mol/kgw)  =   9.235e-04
                       Mass of water (kg)  =   1.000e+00
                 Total alkalinity (eq/kg)  =   2.053e-08
                       Total CO2 (mol/kg)  =   1.552e+00
                         Temperature (°C)  =  25.00
                           Pressure (atm)  = 201.10
                  Electrical balance (eq)  =  -2.053e-08
 Percent error, 100*(Cat-|An|)/(Cat+|An|)  =  -0.00
                               Iterations  =  15
                                  Total H  = 1.110124e+02
                                  Total O  = 5.861056e+01

----------------------------Distribution of species----------------------------

                                               Log       Log       Log    mole V
   Species          Molality    Activity  Molality  Activity     Gamma   cm³/mol

   H+              9.235e-04   8.940e-04    -3.035    -3.049    -0.014      0.00
   OH-             1.359e-11   1.313e-11   -10.867   -10.882    -0.015     -3.40
   H2O             5.551e+01   9.743e-01     1.744    -0.011     0.000     17.91
C(-4)         1.694e-23
   CH4             1.694e-23   1.695e-23   -22.771   -22.771     0.000     35.71
C(4)          1.552e+00
   CO2             1.472e+00   1.472e+00     0.168     0.168     0.000     34.34
   (CO2)2          3.976e-02   3.977e-02    -1.401    -1.400     0.000     68.68
   HCO3-           9.235e-04   8.930e-04    -3.035    -3.049    -0.015     24.80
   CO3-2           6.687e-11   5.848e-11   -10.175   -10.233    -0.058     -2.32
H(0)          1.757e-15
   H2              8.785e-16   8.786e-16   -15.056   -15.056     0.000     28.52
O(0)          0.000e+00
   O2              0.000e+00   0.000e+00   -62.473   -62.473     0.000     30.12

------------------------------Saturation indices-------------------------------

  Phase               SI** log IAP   log K(298 K, 201 atm)

  CH4(g)          -19.84    -22.77   -2.93  CH4
  CO2(g)            1.76      0.17   -1.59  CO2	 Pressure 201.1 atm, phi 0.285
  H2(g)           -11.85    -15.06   -3.20  H2
  H2O(g)           -1.45     -0.01    1.44  H2O
  O2(g)           -59.47    -62.47   -3.00  O2

**For a gas, SI = log10(fugacity). Fugacity = pressure * phi / 1 atm.
  For ideal gases, phi = 1.

------------------
End of simulation.
------------------

-------------------------------------
Reading input data for simulation 13.
-------------------------------------

		SOLUTION 1
	 temp 25
	pressure   2.2110e+02
	EQUILIBRIUM_PHASES
	 CO2(g)   2.3446e+00
	END
-------------------------------------------
Beginning of initial solution calculations.
-------------------------------------------

Initial solution 1.	

-----------------------------Solution composition------------------------------

	Elements           Molality       Moles

	Pure water     

----------------------------Description of solution----------------------------

                                       pH  =   7.000    
                                       pe  =   4.000    
      Specific Conductance (µS/cm,  25°C)  = 0
                          Density (g/cm³)  =   1.00683
                               Volume (L)  =   0.99321
                        Viscosity (mPa s)  =   0.88776
                        Activity of water  =   1.000
                 Ionic strength (mol/kgw)  =   1.113e-07
                       Mass of water (kg)  =   1.000e+00
                 Total alkalinity (eq/kg)  =   2.256e-08
                         Temperature (°C)  =  25.00
                           Pressure (atm)  = 221.10
                  Electrical balance (eq)  =  -2.256e-08
 Percent error, 100*(Cat-|An|)/(Cat+|An|)  = -10.13
                               Iterations  =   0
                                  Total H  = 1.110124e+02
                                  Total O  = 5.550622e+01

----------------------------Distribution of species----------------------------

                                               Log       Log       Log    mole V
   Species          Molality    Activity  Molality  Activity     Gamma   cm³/mol

   OH-             1.226e-07   1.226e-07    -6.911    -6.912    -0.000     -3.36
   H+              1.001e-07   1.000e-07    -7.000    -7.000    -0.000      0.00
   H2O             5.551e+01   1.000e+00     1.744     0.000     0.000     17.89
H(0)          1.096e-25
   H2              5.478e-26   5.478e-26   -25.261   -25.261     0.000     28.51
O(0)          0.000e+00
   O2              0.000e+00   0.000e+00   -42.058   -42.058     0.000     30.09

------------------------------Saturation indices-------------------------------

  Phase               SI** log IAP   log K(298 K, 221 atm)

  H2(g)           -22.05    -25.26   -3.21  H2
  H2O(g)           -1.43      0.00    1.43  H2O
  O2(g)           -39.05    -42.06   -3.01  O2

**For a gas, SI = log10(fugacity). Fugacity = pressure * phi / 1 atm.
  For ideal gases, phi = 1.

-----------------------------------------
Beginning of batch-reaction calculations.
-----------------------------------------

Reaction step 1.

Using solution 1.	
Using pure phase assemblage 1.	

-------------------------------Phase assemblage--------------------------------

                                                      Moles in assemblage
Phase               SI  log IAP  log K(T, P)   Initial       Final       Delta

CO2(g)            1.77     0.17     -1.60    1.000e+01   8.431e+00  -1.569e+00

-----------------------------Solution composition------------------------------

	Elements           Molality       Moles

	C                 1.569e+00   1.569e+00

----------------------------Description of solution----------------------------

                                       pH  =   3.042      Charge balance
                                       pe  =  14.803      Adjusted to redox equilibrium
      Specific Conductance (µS/cm,  25°C)  = 368
                          Density (g/cm³)  =   1.02102
                               Volume (L)  =   1.04706
                        Viscosity (mPa s)  =   0.88802
                        Activity of water  =   0.974
                 Ionic strength (mol/kgw)  =   9.387e-04
                       Mass of water (kg)  =   1.000e+00
                 Total alkalinity (eq/kg)  =   2.256e-08
                       Total CO2 (mol/kg)  =   1.569e+00
                         Temperature (°C)  =  25.00
                           Pressure (atm)  = 221.10
                  Electrical balance (eq)  =  -2.255e-08
 Percent error, 100*(Cat-|An|)/(Cat+|An|)  =  -0.00
                               Iterations  =  14
                                  Total H  = 1.110124e+02
                                  Total O  = 5.864500e+01

----------------------------Distribution of species----------------------------

                                               Log       Log       Log    mole V
   Species          Molality    Activity  Molality  Activity     Gamma   cm³/mol

   H+              9.387e-04   9.085e-04    -3.027    -3.042    -0.014      0.00
   OH-             1.359e-11   1.313e-11   -10.867   -10.882    -0.015     -3.34
   H2O             5.551e+01   9.740e-01     1.744    -0.011     0.000     17.89
C(-4)         0.000e+00
   CH4             0.000e+00   0.000e+00  -118.318  -118.318     0.000     35.74
C(4)          1.569e+00
   CO2             1.487e+00   1.487e+00     0.172     0.172     0.000     34.33
   (CO2)2          4.060e-02   4.061e-02    -1.391    -1.391     0.000     68.66
   HCO3-           9.387e-04   9.075e-04    -3.027    -3.042    -0.015     24.83
   CO3-2           6.835e-11   5.971e-11   -10.165   -10.224    -0.059     -2.15
H(0)          2.238e-39
   H2              1.119e-39   1.119e-39   -38.951   -38.951     0.000     28.51
O(0)          3.978e-15
   O2              1.989e-15   1.989e-15   -14.701   -14.701     0.000     30.09

------------------------------Saturation indices-------------------------------

  Phase               SI** log IAP   log K(298 K, 221 atm)

  CH4(g)         -115.38   -118.32   -2.94  CH4
  CO2(g)            1.77      0.17   -1.60  CO2	 Pressure 221.1 atm, phi 0.269
  H2(g)           -35.74    -38.95   -3.21  H2
  H2O(g)           -1.44     -0.01    1.43  H2O
  O2(g)           -11.69    -14.70   -3.01  O2

**For a gas, SI = log10(fugacity). Fugacity = pressure * phi / 1 atm.
  For ideal gases, phi = 1.

------------------
End of simulation.
------------------

-------------------------------------
Reading input data for simulation 14.
-------------------------------------

		SOLUTION 1
	 temp 25
	pressure   2.4110e+02
	EQUILIBRIUM_PHASES
	 CO2(g)   2.3822e+00
	END
-------------------------------------------
Beginning of initial solution calculations.
-------------------------------------------

Initial solution 1.	

-----------------------------Solution composition------------------------------

	Elements           Molality       Moles

	Pure water     

----------------------------Description of solution----------------------------

                                       pH  =   7.000    
                                       pe  =   4.000    
      Specific Conductance (µS/cm,  25°C)  = 0
                          Density (g/cm³)  =   1.00771
                               Volume (L)  =   0.99235
                        Viscosity (mPa s)  =   0.88763
                        Activity of water  =   1.000
                 Ionic strength (mol/kgw)  =   1.124e-07
                       Mass of water (kg)  =   1.000e+00
                 Total alkalinity (eq/kg)  =   2.461e-08
                         Temperature (°C)  =  25.00
                           Pressure (atm)  = 241.10
                  Electrical balance (eq)  =  -2.461e-08
 Percent error, 100*(Cat-|An|)/(Cat+|An|)  = -10.95
                               Iterations  =   0
                                  Total H  = 1.110124e+02
                                  Total O  = 5.550622e+01

----------------------------Distribution of species----------------------------

                                               Log       Log       Log    mole V
   Species          Molality    Activity  Molality  Activity     Gamma   cm³/mol

   OH-             1.247e-07   1.246e-07    -6.904    -6.904    -0.000     -3.30
   H+              1.001e-07   1.000e-07    -7.000    -7.000    -0.000      0.00
   H2O             5.551e+01   1.000e+00     1.744     0.000     0.000     17.88
H(0)          1.070e-25
   H2              5.352e-26   5.352e-26   -25.271   -25.271     0.000     28.50
O(0)          0.000e+00
   O2              0.000e+00   0.000e+00   -42.056   -42.056     0.000     30.07

------------------------------Saturation indices-------------------------------

  Phase               SI** log IAP   log K(298 K, 241 atm)

  H2(g)           -22.05    -25.27   -3.22  H2
  H2O(g)           -1.43      0.00    1.43  H2O
  O2(g)           -39.04    -42.06   -3.02  O2

**For a gas, SI = log10(fugacity). Fugacity = pressure * phi / 1 atm.
  For ideal gases, phi = 1.

-----------------------------------------
Beginning of batch-reaction calculations.
-----------------------------------------

Reaction step 1.

Using solution 1.	
Using pure phase assemblage 1.	

-------------------------------Phase assemblage--------------------------------

[...]
   H2O             5.551e+01   9.760e-01     1.744    -0.011     0.000     18.42
C(-4)         2.515e-27
   CH4             2.515e-27   2.515e-27   -26.600   -26.599     0.000     40.57
C(4)          1.559e+00
   CO2             1.262e+00   1.263e+00     0.101     0.101     0.000     37.76
   (CO2)2          1.479e-01   1.479e-01    -0.830    -0.830     0.000     75.51
   HCO3-           8.831e-04   8.504e-04    -3.054    -3.070    -0.016     25.48
   CO3-2           1.226e-10   1.054e-10    -9.912    -9.977    -0.066     -2.50
H(0)          1.667e-14
   H2              8.334e-15   8.336e-15   -14.079   -14.079     0.000     28.39
O(0)          0.000e+00
   O2              0.000e+00   0.000e+00   -45.232   -45.232     0.000     32.62

------------------------------Saturation indices-------------------------------

  Phase               SI** log IAP   log K(373 K, 441 atm)

  CH4(g)          -23.34    -26.60   -3.26  CH4
  CO2(g)            2.32      0.10   -2.21  CO2	 Pressure 441.1 atm, phi 0.469
  H2(g)           -10.80    -14.08   -3.28  H2
  H2O(g)            0.10     -0.01   -0.11  H2O
  O2(g)           -41.91    -45.23   -3.32  O2

**For a gas, SI = log10(fugacity). Fugacity = pressure * phi / 1 atm.
  For ideal gases, phi = 1.

------------------
End of simulation.
------------------

--------------------------------------
Reading input data for simulation 109.
--------------------------------------

		SOLUTION 1
	 temp 100
	pressure   4.6110e+02
	EQUILIBRIUM_PHASES
	 CO2(g)   2.6638e+00
	END
-------------------------------------------
Beginning of initial solution calculations.
-------------------------------------------

Initial solution 1.	

-----------------------------Solution composition------------------------------

	Elements           Molality       Moles

	Pure water     

----------------------------Description of solution----------------------------

                                       pH  =   7.000    
                                       pe  =   4.000    
      Specific Conductance (µS/cm, 100°C)  = 3
                          Density (g/cm³)  =   0.97897
                               Volume (L)  =   1.02148
                        Viscosity (mPa s)  =   0.29398
                        Activity of water  =   1.000
                 Ionic strength (mol/kgw)  =   4.337e-06
                       Mass of water (kg)  =   1.000e+00
                 Total alkalinity (eq/kg)  =   8.474e-06
                         Temperature (°C)  = 100.00
                           Pressure (atm)  = 461.10
                  Electrical balance (eq)  =  -8.474e-06
 Percent error, 100*(Cat-|An|)/(Cat+|An|)  = -97.69
                               Iterations  =   3
                                  Total H  = 1.110124e+02
                                  Total O  = 5.550623e+01

----------------------------Distribution of species----------------------------

                                               Log       Log       Log    mole V
   Species          Molality    Activity  Molality  Activity     Gamma   cm³/mol

   OH-             8.574e-06   8.550e-06    -5.067    -5.068    -0.001     -7.69
   H+              1.003e-07   1.000e-07    -6.999    -7.000    -0.001      0.00
   H2O             5.551e+01   1.000e+00     1.744    -0.000     0.000     18.40
H(0)          5.090e-26
   H2              2.545e-26   2.545e-26   -25.594   -25.594     0.000     28.38
O(0)          1.278e-22
   O2              6.388e-23   6.388e-23   -22.195   -22.195     0.000     32.57

------------------------------Saturation indices-------------------------------

  Phase               SI** log IAP   log K(373 K, 461 atm)

  H2(g)           -22.31    -25.59   -3.29  H2
  H2O(g)            0.12     -0.00   -0.12  H2O
  O2(g)           -18.87    -22.19   -3.33  O2

**For a gas, SI = log10(fugacity). Fugacity = pressure * phi / 1 atm.
  For ideal gases, phi = 1.

-----------------------------------------
Beginning of batch-reaction calculations.
-----------------------------------------

Reaction step 1.

Using solution 1.	
Using pure phase assemblage 1.	

-------------------------------Phase assemblage--------------------------------

                                                      Moles in assemblage
Phase               SI  log IAP  log K(T, P)   Initial       Final       Delta

CO2(g)            2.33     0.11     -2.23    1.000e+01   8.419e+00  -1.581e+00

-----------------------------Solution composition------------------------------

	Elements           Molality       Moles

	C                 1.581e+00   1.581e+00

----------------------------Description of solution----------------------------

                                       pH  =   3.067      Charge balance
                                       pe  =   2.421      Adjusted to redox equilibrium
      Specific Conductance (µS/cm, 100°C)  = 610
                          Density (g/cm³)  =   0.98937
                               Volume (L)  =   1.08107
                        Viscosity (mPa s)  =   0.29440
                        Activity of water  =   0.976
                 Ionic strength (mol/kgw)  =   8.923e-04
                       Mass of water (kg)  =   1.000e+00
                 Total alkalinity (eq/kg)  =   8.474e-06
                       Total CO2 (mol/kg)  =   1.581e+00
                         Temperature (°C)  = 100.00
                           Pressure (atm)  = 461.10
                  Electrical balance (eq)  =  -8.474e-06
 Percent error, 100*(Cat-|An|)/(Cat+|An|)  =  -0.47
                               Iterations  =  15
                                  Total H  = 1.110124e+02
                                  Total O  = 5.866824e+01

----------------------------Distribution of species----------------------------

                                               Log       Log       Log    mole V
   Species          Molality    Activity  Molality  Activity     Gamma   cm³/mol

   H+              8.880e-04   8.561e-04    -3.052    -3.067    -0.016      0.00
   OH-             1.012e-09   9.738e-10    -8.995    -9.012    -0.017     -7.65
   H2O             5.551e+01   9.757e-01     1.744    -0.011     0.000     18.40
C(-4)         2.894e-29
   CH4             2.894e-29   2.895e-29   -28.538   -28.538     0.000     40.55
C(4)          1.581e+00
   CO2             1.277e+00   1.277e+00     0.106     0.106     0.000     37.71
   (CO2)2          1.514e-01   1.515e-01    -0.820    -0.820     0.000     75.43
   HCO3-           8.965e-04   8.631e-04    -3.047    -3.064    -0.016     25.54
   CO3-2           1.247e-10   1.071e-10    -9.904    -9.970    -0.066     -2.28
H(0)          5.378e-15
   H2              2.689e-15   2.689e-15   -14.570   -14.570     0.000     28.38
O(0)          0.000e+00
   O2              0.000e+00   0.000e+00   -44.264   -44.264     0.000     32.57

------------------------------Saturation indices-------------------------------

  Phase               SI** log IAP   log K(373 K, 461 atm)

  CH4(g)          -25.27    -28.54   -3.27  CH4
  CO2(g)            2.33      0.11   -2.23  CO2	 Pressure 461.1 atm, phi 0.465
  H2(g)           -11.28    -14.57   -3.29  H2
  H2O(g)            0.10     -0.01   -0.12  H2O
  O2(g)           -40.94    -44.26   -3.33  O2

**For a gas, SI = log10(fugacity). Fugacity = pressure * phi / 1 atm.
  For ideal gases, phi = 1.

------------------
End of simulation.
------------------

--------------------------------------
Reading input data for simulation 110.
--------------------------------------

		SOLUTION 1
	 temp 100
	pressure   4.8110e+02
	EQUILIBRIUM_PHASES
	 CO2(g)   2.6822e+00
	END
-------------------------------------------
Beginning of initial solution calculations.
-------------------------------------------

Initial solution 1.	

-----------------------------Solution composition------------------------------

	Elements           Molality       Moles

	Pure water     

----------------------------Description of solution----------------------------

                                       pH  =   7.000    
                                       pe  =   4.000    
      Specific Conductance (µS/cm, 100°C)  = 3
                          Density (g/cm³)  =   0.97981
                               Volume (L)  =   1.02061
                        Viscosity (mPa s)  =   0.29451
                        Activity of water  =   1.000
                 Ionic strength (mol/kgw)  =   4.414e-06
                       Mass of water (kg)  =   1.000e+00
                 Total alkalinity (eq/kg)  =   8.628e-06
                         Temperature (°C)  = 100.00
                           Pressure (atm)  = 481.10
                  Electrical balance (eq)  =  -8.628e-06
 Percent error, 100*(Cat-|An|)/(Cat+|An|)  = -97.73
                               Iterations  =   3
                                  Total H  = 1.110124e+02
                                  Total O  = 5.550623e+01

----------------------------Distribution of species----------------------------

                                               Log       Log       Log    mole V
   Species          Molality    Activity  Molality  Activity     Gamma   cm³/mol

   OH-             8.728e-06   8.704e-06    -5.059    -5.060    -0.001     -7.76
   H+              1.003e-07   1.000e-07    -6.999    -7.000    -0.001      0.00
   H2O             5.551e+01   1.000e+00     1.744    -0.000     0.000     18.39
H(0)          4.997e-26
   H2              2.498e-26   2.498e-26   -25.602   -25.602     0.000     28.37
O(0)          1.282e-22
   O2              6.408e-23   6.408e-23   -22.193   -22.193     0.000     32.52

------------------------------Saturation indices-------------------------------

  Phase               SI** log IAP   log K(373 K, 481 atm)

  H2(g)           -22.31    -25.60   -3.29  H2
  H2O(g)            0.12     -0.00   -0.12  H2O
  O2(g)           -18.86    -22.19   -3.34  O2

**For a gas, SI = log10(fugacity). Fugacity = pressure * phi / 1 atm.
  For ideal gases, phi = 1.

-----------------------------------------
Beginning of batch-reaction calculations.
-----------------------------------------

Reaction step 1.

Using solution 1.	
Using pure phase assemblage 1.	

-------------------------------Phase assemblage--------------------------------

                                                      Moles in assemblage
Phase               SI  log IAP  log K(T, P)   Initial       Final       Delta

CO2(g)            2.35     0.11     -2.24    1.000e+01   8.398e+00  -1.602e+00

-----------------------------Solution composition------------------------------

	Elements           Molality       Moles

	C                 1.602e+00   1.602e+00

----------------------------Description of solution----------------------------

                                       pH  =   3.061      Charge balance
                                       pe  =   9.983      Adjusted to redox equilibrium
      Specific Conductance (µS/cm, 100°C)  = 618
                          Density (g/cm³)  =   0.99036
                               Volume (L)  =   1.08092
                        Viscosity (mPa s)  =   0.29493
                        Activity of water  =   0.975
                 Ionic strength (mol/kgw)  =   9.054e-04
                       Mass of water (kg)  =   1.000e+00
                 Total alkalinity (eq/kg)  =   8.628e-06
                       Total CO2 (mol/kg)  =   1.602e+00
                         Temperature (°C)  = 100.00
                           Pressure (atm)  = 481.10
                  Electrical balance (eq)  =  -8.628e-06
 Percent error, 100*(Cat-|An|)/(Cat+|An|)  =  -0.48
                               Iterations  =  32
                                  Total H  = 1.110124e+02
                                  Total O  = 5.871001e+01

----------------------------Distribution of species----------------------------

                                               Log       Log       Log    mole V
   Species          Molality    Activity  Molality  Activity     Gamma   cm³/mol

   H+              9.011e-04   8.685e-04    -3.045    -3.061    -0.016      0.00
   OH-             1.015e-09   9.767e-10    -8.993    -9.010    -0.017     -7.71
   H2O             5.551e+01   9.754e-01     1.744    -0.011     0.000     18.39
C(-4)         0.000e+00
   CH4             0.000e+00   0.000e+00   -88.996   -88.996     0.000     40.53
C(4)          1.602e+00
   CO2             1.291e+00   1.292e+00     0.111     0.111     0.000     37.67
   (CO2)2          1.548e-01   1.548e-01    -0.810    -0.810     0.000     75.34
   HCO3-           9.097e-04   8.757e-04    -3.041    -3.058    -0.017     25.59
   CO3-2           1.267e-10   1.088e-10    -9.897    -9.963    -0.066     -2.06
H(0)          4.072e-30
   H2              2.036e-30   2.036e-30   -29.691   -29.691     0.000     28.37
O(0)          1.835e-14
   O2              9.174e-15   9.176e-15   -14.037   -14.037     0.000     32.52

------------------------------Saturation indices-------------------------------

  Phase               SI** log IAP   log K(373 K, 481 atm)

  CH4(g)          -85.72    -89.00   -3.28  CH4
  CO2(g)            2.35      0.11   -2.24  CO2	 Pressure 481.1 atm, phi 0.462
  H2(g)           -26.40    -29.69   -3.29  H2
  H2O(g)            0.11     -0.01   -0.12  H2O
  O2(g)           -10.70    -14.04   -3.34  O2

**For a gas, SI = log10(fugacity). Fugacity = pressure * phi / 1 atm.
  For ideal gases, phi = 1.

------------------
End of simulation.
------------------

--------------------------------------
Reading input data for simulation 111.
--------------------------------------

		SOLUTION 1
	 temp 100
	pressure   5.0110e+02
	EQUILIBRIUM_PHASES
	 CO2(g)   2.6999e+00
	END
-------------------------------------------
Beginning of initial solution calculations.
-------------------------------------------

Initial solution 1.	

-----------------------------Solution composition------------------------------

	Elements           Molality       Moles

	Pure water     

----------------------------Description of solution----------------------------

                                       pH  =   7.000    
                                       pe  =   4.000    
      Specific Conductance (µS/cm, 100°C)  = 3
                          Density (g/cm³)  =   0.98064
                               Volume (L)  =   1.01974
                        Viscosity (mPa s)  =   0.29503
                        Activity of water  =   1.000
                 Ionic strength (mol/kgw)  =   4.493e-06
                       Mass of water (kg)  =   1.000e+00
                 Total alkalinity (eq/kg)  =   8.785e-06
                         Temperature (°C)  = 100.00
                           Pressure (atm)  = 501.10
                  Electrical balance (eq)  =  -8.785e-06
 Percent error, 100*(Cat-|An|)/(Cat+|An|)  = -97.77
                               Iterations  =   3
                                  Total H  = 1.110124e+02
                                  Total O  = 5.550623e+01

----------------------------Distribution of species----------------------------

                                               Log       Log       Log    mole V
   Species          Molality    Activity  Molality  Activity     Gamma   cm³/mol

   OH-             8.885e-06   8.860e-06    -5.051    -5.053    -0.001     -7.82
   H+              1.003e-07   1.000e-07    -6.999    -7.000    -0.001      0.00
   H2O             5.551e+01   1.000e+00     1.744    -0.000     0.000     18.37
H(0)          4.906e-26
   H2              2.453e-26   2.453e-26   -25.610   -25.610     0.000     28.36
O(0)          1.285e-22
   O2              6.427e-23   6.427e-23   -22.192   -22.192     0.000     32.48

------------------------------Saturation indices-------------------------------

  Phase               SI** log IAP   log K(373 K, 501 atm)

  H2(g)           -22.31    -25.61   -3.30  H2
  H2O(g)            0.13     -0.00   -0.13  H2O
  O2(g)           -18.85    -22.19   -3.34  O2

**For a gas, SI = log10(fugacity). Fugacity = pressure * phi / 1 atm.
  For ideal gases, phi = 1.

-----------------------------------------
Beginning of batch-reaction calculations.
-----------------------------------------

Reaction step 1.

Using solution 1.	
Using pure phase assemblage 1.	

-------------------------------Phase assemblage--------------------------------

                                                      Moles in assemblage
Phase               SI  log IAP  log K(T, P)   Initial       Final       Delta

CO2(g)            2.36     0.12     -2.25    1.000e+01   8.378e+00  -1.622e+00

-----------------------------Solution composition------------------------------

	Elements           Molality       Moles

	C                 1.622e+00   1.622e+00

----------------------------Description of solution----------------------------

                                       pH  =   3.055      Charge balance
                                       pe  =   2.216      Adjusted to redox equilibrium
      Specific Conductance (µS/cm, 100°C)  = 626
                          Density (g/cm³)  =   0.99135
                               Volume (L)  =   1.08075
                        Viscosity (mPa s)  =   0.29546
                        Activity of water  =   0.975
                 Ionic strength (mol/kgw)  =   9.185e-04
                       Mass of water (kg)  =   1.000e+00
                 Total alkalinity (eq/kg)  =   8.785e-06
                       Total CO2 (mol/kg)  =   1.622e+00
                         Temperature (°C)  = 100.00
                           Pressure (atm)  = 501.10
                  Electrical balance (eq)  =  -8.785e-06
 Percent error, 100*(Cat-|An|)/(Cat+|An|)  =  -0.48
                               Iterations  =  15
                                  Total H  = 1.110124e+02
                                  Total O  = 5.875064e+01

----------------------------Distribution of species----------------------------

                                               Log       Log       Log    mole V
   Species          Molality    Activity  Molality  Activity     Gamma   cm³/mol

   H+              9.141e-04   8.809e-04    -3.039    -3.055    -0.016      0.00
   OH-             1.019e-09   9.800e-10    -8.992    -9.009    -0.017     -7.77
   H2O             5.551e+01   9.751e-01     1.744    -0.011     0.000     18.37
C(-4)         1.519e-27
   CH4             1.519e-27   1.519e-27   -26.818   -26.818     0.000     40.51
C(4)          1.622e+00
   CO2             1.305e+00   1.305e+00     0.116     0.116     0.000     37.62
   (CO2)2          1.581e-01   1.581e-01    -0.801    -0.801     0.000     75.25
   HCO3-           9.229e-04   8.882e-04    -3.035    -3.052    -0.017     25.65
   CO3-2           1.288e-10   1.105e-10    -9.890    -9.957    -0.067     -1.85
H(0)          1.405e-14
   H2              7.026e-15   7.027e-15   -14.153   -14.153     0.000     28.36
O(0)          0.000e+00
   O2              0.000e+00   0.000e+00   -45.128   -45.128     0.000     32.48

------------------------------Saturation indices-------------------------------

  Phase               SI** log IAP   log K(373 K, 501 atm)

  CH4(g)          -23.53    -26.82   -3.29  CH4
  CO2(g)            2.36      0.12   -2.25  CO2	 Pressure 501.1 atm, phi 0.459
  H2(g)           -10.85    -14.15   -3.30  H2
  H2O(g)            0.11     -0.01   -0.13  H2O
  O2(g)           -41.78    -45.13   -3.34  O2

**For a gas, SI = log10(fugacity). Fugacity = pressure * phi / 1 atm.
  For ideal gases, phi = 1.

------------------
End of simulation.
------------------

--------------------------------------
Reading input data for simulation 112.
--------------------------------------

	END
------------------
End of simulation.
------------------

--------------------------------------
Reading input data for simulation 113.
--------------------------------------

