WARNING: Database file from DATABASE keyword is used; command line argument ignored.
   Input file: co2_tc
  Output file: co2_tc.out
Database file: ../database/phreeqc.dat

------------------
Reading data base.
------------------

	SOLUTION_MASTER_SPECIES
	SOLUTION_SPECIES
	PHASES
	EXCHANGE_MASTER_SPECIES
	EXCHANGE_SPECIES
	SURFACE_MASTER_SPECIES
	SURFACE_SPECIES
	RATES
	END
------------------------------------
Reading input data for simulation 1.
------------------------------------

	DATABASE ../database/phreeqc.dat
	SOLUTION_SPECIES
	CO3-2 + 2 H+ = CO2 + H2O
		log_k	16.681
		delta_h -5.738	kcal
		analytical_expression	464.1965	0.09344813	-26986.16	-165.75951	2248628.9
		dw	 1.92e-9
		vm   12.84 -24.3 11.1 1.52 # supcrit modified
	SOLUTION 1
	 pH 7 charge
	 temp 25
	EQUILIBRIUM_PHASES
	 CO2(g) 1.99
	GAS_PHASE 1
	     fixed_volume
	     CO2(g) 0
	 H2O(g) 0
	REACTION_TEMPERATURE
	 25 200 in 10
	USER_GRAPH
	 -plot_csv_file CO2_tc.dat
	 -axis_titles "Temp / oC" "CO2 solubility at 100 bar / (mol/kgw)"
	 -connect_simulations false
	 10 graph_x tc
	 20 graph_y tot("C")
	END
-------------------------------------------
Beginning of initial solution calculations.
-------------------------------------------

Initial solution 1.	

-----------------------------Solution composition------------------------------

	Elements           Molality       Moles

	Pure water     

----------------------------Description of solution----------------------------

                                       pH  =   6.997      Charge balance
                                       pe  =   4.000    
       Specific Conductance (µS/cm, 25°C)  = 0
                          Density (g/cm³)  =   0.99704
                               Volume (L)  =   1.00297
                        Activity of water  =   1.000
                           Ionic strength  =   1.006e-07
                       Mass of water (kg)  =   1.000e+00
                 Total alkalinity (eq/kg)  =   3.040e-17
                    Total carbon (mol/kg)  =   0.000e+00
                       Total CO2 (mol/kg)  =   0.000e+00
                         Temperature (°C)  =  25.00
                  Electrical balance (eq)  =  -3.040e-17
 Percent error, 100*(Cat-|An|)/(Cat+|An|)  =  -0.00
                               Iterations  =   2
                                  Total H  = 1.110124e+02
                                  Total O  = 5.550622e+01

----------------------------Distribution of species----------------------------

                                               Log       Log       Log    mole V
   Species          Molality    Activity  Molality  Activity     Gamma   cm³/mol

   OH-             1.006e-07   1.006e-07    -6.997    -6.997    -0.000     -4.14
   H+              1.006e-07   1.006e-07    -6.997    -6.997    -0.000      0.00
   H2O             5.551e+01   1.000e+00     1.744    -0.000     0.000     18.07
H(0)          1.433e-25
   H2              7.166e-26   7.166e-26   -25.145   -25.145     0.000     28.61
O(0)          0.000e+00
   O2              0.000e+00   0.000e+00   -42.090   -42.090     0.000     30.40

------------------------------Saturation indices-------------------------------

  Phase               SI** log IAP   log K(298 K,   1 atm)

  H2(g)           -22.04    -25.14   -3.10  H2
  H2O(g)           -1.50     -0.00    1.50  H2O
  O2(g)           -39.20    -42.09   -2.89  O2

**For a gas, SI = log10(fugacity). Fugacity = pressure * phi / 1 atm.
  For ideal gases, phi = 1.

-----------------------------------------
Beginning of batch-reaction calculations.
-----------------------------------------

Reaction step 1.

Using solution 1.	
Using pure phase assemblage 1.	
Using gas phase 1.	
Using temperature 1.	

-----------------------------------Gas phase-----------------------------------

Total pressure: 65.19      atmospheres          (Peng-Robinson calculation)
    Gas volume:   1.00e+00 liters
  Molar volume:   1.16e-01 liters/mole
   P * Vm / RT:  0.30868  (Compressibility Factor Z) 

                                                        Moles in gas
                                            ----------------------------------
Component         log P           P    phi     Initial       Final       Delta

CO2(g)             1.81   6.508e+01  0.657   0.000e+00   8.617e+00   8.617e+00
H2O(g)            -0.98   1.052e-01  0.306   0.000e+00   1.393e-02   1.393e-02

-------------------------------Phase assemblage--------------------------------

                                                      Moles in assemblage
Phase               SI  log IAP  log K(T, P)   Initial       Final       Delta

CO2(g)            1.63     0.14     -1.49    1.000e+01           0  -1.000e+01

-----------------------------Solution composition------------------------------

	Elements           Molality       Moles

	C                 1.383e+00   1.383e+00

----------------------------Description of solution----------------------------

                                       pH  =   3.100      Charge balance
                                       pe  =   2.566      Adjusted to redox equilibrium
       Specific Conductance (µS/cm, 25°C)  = 316
                          Density (g/cm³)  =   1.02452
                               Volume (L)  =   1.03522
                        Activity of water  =   0.976
                           Ionic strength  =   8.196e-04
                       Mass of water (kg)  =   9.997e-01
                 Total alkalinity (eq/kg)  =  -3.518e-16
                       Total CO2 (mol/kg)  =   1.383e+00
                         Temperature (°C)  =  25.00
                           Pressure (atm)  = 65.19
                  Electrical balance (eq)  =   3.517e-16
 Percent error, 100*(Cat-|An|)/(Cat+|An|)  =   0.00
                               Iterations  =  90
                                  Total H  = 1.109846e+02
                                  Total O  = 5.825769e+01

----------------------------Distribution of species----------------------------

                                               Log       Log       Log    mole V
   Species          Molality    Activity  Molality  Activity     Gamma   cm³/mol

   H+              8.196e-04   7.947e-04    -3.086    -3.100    -0.013      0.00
   OH-             1.361e-11   1.317e-11   -10.866   -10.880    -0.014     -3.87
   H2O             5.551e+01   9.765e-01     1.744    -0.010     0.000     18.02
C(-4)         1.490e-21
   CH4             1.490e-21   1.491e-21   -20.827   -20.827     0.000     32.22
C(4)          1.383e+00
   CO2             1.382e+00   1.383e+00     0.141     0.141     0.000     25.61
   HCO3-           8.196e-04   7.939e-04    -3.086    -3.100    -0.014     24.74
   CO3-2           5.750e-11   5.061e-11   -10.240   -10.296    -0.055     -4.70
H(0)          6.109e-15
   H2              3.055e-15   3.055e-15   -14.515   -14.515     0.000     28.58
O(0)          0.000e+00
   O2              0.000e+00   0.000e+00   -63.429   -63.429     0.000     30.31

------------------------------Saturation indices-------------------------------

  Phase               SI** log IAP   log K(298 K,  65 atm)

  CH4(g)          -17.95    -20.83   -2.88  CH4
  CO2(g)            1.63      0.14   -1.49  CO2	 Pressure  65.1 atm, phi 0.657
  H2(g)           -11.38    -14.51   -3.13  H2
  H2O(g)           -1.49     -0.01    1.48  H2O	 Pressure   0.1 atm, phi 0.306
  O2(g)           -60.50    -63.43   -2.93  O2

**For a gas, SI = log10(fugacity). Fugacity = pressure * phi / 1 atm.
  For ideal gases, phi = 1.

Reaction step 2.

Using solution 1.	
Using pure phase assemblage 1.	
Using gas phase 1.	
Using temperature 1.	

-----------------------------------Gas phase-----------------------------------

Total pressure: 91.70      atmospheres          (Peng-Robinson calculation)
    Gas volume:   1.00e+00 liters
  Molar volume:   1.13e-01 liters/mole
   P * Vm / RT:  0.39648  (Compressibility Factor Z) 

                                                        Moles in gas
                                            ----------------------------------
Component         log P           P    phi     Initial       Final       Delta

CO2(g)             1.96   9.138e+01  0.619   0.000e+00   8.844e+00   8.844e+00
H2O(g)            -0.49   3.233e-01  0.296   0.000e+00   3.129e-02   3.129e-02

-------------------------------Phase assemblage--------------------------------

                                                      Moles in assemblage
Phase               SI  log IAP  log K(T, P)   Initial       Final       Delta

CO2(g)            1.75     0.06     -1.69    1.000e+01           0  -1.000e+01

-----------------------------Solution composition------------------------------

	Elements           Molality       Moles

	C                 1.157e+00   1.156e+00

----------------------------Description of solution----------------------------

                                       pH  =   3.105      Charge balance
                                       pe  =   2.569      Adjusted to redox equilibrium
       Specific Conductance (µS/cm, 44°C)  = 463
                          Density (g/cm³)  =   1.01718
                               Volume (L)  =   1.03259
                        Activity of water  =   0.980
                           Ionic strength  =   8.100e-04
                       Mass of water (kg)  =   9.994e-01
                 Total alkalinity (eq/kg)  =  -2.232e-13
                       Total CO2 (mol/kg)  =   1.157e+00
                         Temperature (°C)  =  44.44
                           Pressure (atm)  = 91.70
                  Electrical balance (eq)  =   2.231e-13
 Percent error, 100*(Cat-|An|)/(Cat+|An|)  =   0.00
                               Iterations  =  75
                                  Total H  = 1.109499e+02
                                  Total O  = 5.778760e+01

----------------------------Distribution of species----------------------------

                                               Log       Log       Log    mole V
   Species          Molality    Activity  Molality  Activity     Gamma   cm³/mol

   H+              8.100e-04   7.847e-04    -3.092    -3.105    -0.014      0.00
   OH-             5.432e-11   5.253e-11   -10.265   -10.280    -0.014     -3.81
   H2O             5.551e+01   9.803e-01     1.744    -0.009     0.000     18.12
C(-4)         2.904e-24
   CH4             2.904e-24   2.905e-24   -23.537   -23.537     0.000     32.22
C(4)          1.157e+00
   CO2             1.156e+00   1.156e+00     0.063     0.063     0.000     23.79
   HCO3-           8.100e-04   7.838e-04    -3.092    -3.106    -0.014     25.69
   CO3-2           8.003e-11   7.019e-11   -10.097   -10.154    -0.057     -4.20
H(0)          4.793e-15
   H2              2.397e-15   2.397e-15   -14.620   -14.620     0.000     28.55
O(0)          0.000e+00
   O2              0.000e+00   0.000e+00   -57.345   -57.345     0.000     31.45

------------------------------Saturation indices-------------------------------

  Phase               SI** log IAP   log K(317 K,  92 atm)

  CH4(g)          -20.52    -23.54   -3.01  CH4
  CO2(g)            1.75      0.06   -1.69  CO2	 Pressure  91.4 atm, phi 0.619
  H2(g)           -11.44    -14.62   -3.18  H2
  H2O(g)           -1.02     -0.01    1.01  H2O	 Pressure   0.3 atm, phi 0.296
  O2(g)           -54.29    -57.34   -3.05  O2

**For a gas, SI = log10(fugacity). Fugacity = pressure * phi / 1 atm.
  For ideal gases, phi = 1.

Reaction step 3.

WARNING: Numerical method failed, switching to numerical derivatives.
WARNING: Maximum iterations exceeded, 100

WARNING: Numerical method failed with this set of convergence parameters.

WARNING: Trying smaller step size, pe step size 10, 5 ... 

Using solution 1.	
Using pure phase assemblage 1.	
Using gas phase 1.	
Using temperature 1.	

-----------------------------------Gas phase-----------------------------------

Total pressure: 98.76      atmospheres          (Peng-Robinson calculation)
    Gas volume:   1.00e+00 liters
  Molar volume:   1.59e-01 liters/mole
   P * Vm / RT:  0.56804  (Compressibility Factor Z) 

                                                        Moles in gas
                                            ----------------------------------
Component         log P           P    phi     Initial       Final       Delta

CO2(g)             1.99   9.816e+01  0.671   0.000e+00   6.248e+00   6.248e+00
H2O(g)            -0.22   6.032e-01  0.406   0.000e+00   3.840e-02   3.840e-02

-------------------------------Phase assemblage--------------------------------

                                                      Moles in assemblage
Phase               SI  log IAP  log K(T, P)   Initial       Final       Delta

CO2(g)            1.82    -0.01     -1.83    1.000e+01   2.776e+00  -7.224e+00

-----------------------------Solution composition------------------------------

	Elements           Molality       Moles

	C                 9.767e-01   9.760e-01

----------------------------Description of solution----------------------------

                                       pH  =   3.145      Charge balance
                                       pe  =   1.561      Adjusted to redox equilibrium
       Specific Conductance (µS/cm, 63°C)  = 577
                          Density (g/cm³)  =   1.00601
                               Volume (L)  =   1.03603
                        Activity of water  =   0.983
                           Ionic strength  =   7.388e-04
                       Mass of water (kg)  =   9.993e-01
                 Total alkalinity (eq/kg)  =   8.482e-15
                       Total CO2 (mol/kg)  =   9.767e-01
                         Temperature (°C)  =  63.89
                           Pressure (atm)  = 98.76
                  Electrical balance (eq)  =  -8.476e-15
 Percent error, 100*(Cat-|An|)/(Cat+|An|)  =  -0.00
                               Iterations  =  35
                                  Total H  = 1.109356e+02
                                  Total O  = 5.741978e+01

----------------------------Distribution of species----------------------------

                                               Log       Log       Log    mole V
   Species          Molality    Activity  Molality  Activity     Gamma   cm³/mol

   H+              7.388e-04   7.158e-04    -3.131    -3.145    -0.014      0.00
   OH-             1.825e-10   1.766e-10    -9.739    -9.753    -0.014     -4.31
   H2O             5.551e+01   9.834e-01     1.744    -0.007     0.000     18.28
C(-4)         5.780e-19
   CH4             5.780e-19   5.781e-19   -18.238   -18.238     0.000     32.22
C(4)          9.767e-01
   CO2             9.759e-01   9.761e-01    -0.011    -0.011     0.000     22.49
   HCO3-           7.388e-04   7.151e-04    -3.131    -3.146    -0.014     25.91
   CO3-2           9.306e-11   8.167e-11   -10.031   -10.088    -0.057     -5.67
H(0)          3.519e-13
   H2              1.760e-13   1.760e-13   -12.755   -12.755     0.000     28.53
O(0)          0.000e+00
   O2              0.000e+00   0.000e+00   -55.864   -55.864     0.000     32.30

------------------------------Saturation indices-------------------------------

  Phase               SI** log IAP   log K(337 K,  99 atm)

  CH4(g)          -15.16    -18.24   -3.08  CH4
  CO2(g)            1.82     -0.01   -1.83  CO2	 Pressure  98.2 atm, phi 0.671
  H2(g)            -9.57    -12.75   -3.18  H2
  H2O(g)           -0.61     -0.01    0.60  H2O	 Pressure   0.6 atm, phi 0.406
  O2(g)           -52.74    -55.86   -3.12  O2

**For a gas, SI = log10(fugacity). Fugacity = pressure * phi / 1 atm.
  For ideal gases, phi = 1.

Reaction step 4.

Using solution 1.	
Using pure phase assemblage 1.	
Using gas phase 1.	
Using temperature 1.	

-----------------------------------Gas phase-----------------------------------

Total pressure: 99.36      atmospheres          (Peng-Robinson calculation)
    Gas volume:   1.00e+00 liters
  Molar volume:   1.98e-01 liters/mole
   P * Vm / RT:  0.67317  (Compressibility Factor Z) 

                                                        Moles in gas
                                            ----------------------------------
Component         log P           P    phi     Initial       Final       Delta

CO2(g)             1.99   9.823e+01  0.727   0.000e+00   4.988e+00   4.988e+00
H2O(g)             0.05   1.127e+00  0.493   0.000e+00   5.725e-02   5.725e-02

-------------------------------Phase assemblage--------------------------------

                                                      Moles in assemblage
Phase               SI  log IAP  log K(T, P)   Initial       Final       Delta

CO2(g)            1.85    -0.07     -1.93    1.000e+01   4.170e+00  -5.830e+00

-----------------------------Solution composition------------------------------

	Elements           Molality       Moles

	C                 8.429e-01   8.420e-01

----------------------------Description of solution----------------------------

                                       pH  =   3.205      Charge balance
                                       pe  =   2.322      Adjusted to redox equilibrium
       Specific Conductance (µS/cm, 83°C)  = 650
                          Density (g/cm³)  =   0.99275
                               Volume (L)  =   1.04360
                        Activity of water  =   0.986
                           Ionic strength  =   6.436e-04
                       Mass of water (kg)  =   9.990e-01
                 Total alkalinity (eq/kg)  =  -8.055e-14
                       Total CO2 (mol/kg)  =   8.429e-01
                         Temperature (°C)  =  83.33
                           Pressure (atm)  = 99.36
                  Electrical balance (eq)  =   8.046e-14
 Percent error, 100*(Cat-|An|)/(Cat+|An|)  =   0.00
                               Iterations  =  96
                                  Total H  = 1.108979e+02
                                  Total O  = 5.713302e+01

----------------------------Distribution of species----------------------------

                                               Log       Log       Log    mole V
   Species          Molality    Activity  Molality  Activity     Gamma   cm³/mol

   H+              6.436e-04   6.239e-04    -3.191    -3.205    -0.013      0.00
   OH-             5.271e-10   5.103e-10    -9.278    -9.292    -0.014     -5.22
   H2O             5.551e+01   9.857e-01     1.744    -0.006     0.000     18.49
C(-4)         8.467e-28
   CH4             8.467e-28   8.468e-28   -27.072   -27.072     0.000     32.22
C(4)          8.429e-01
   CO2             8.423e-01   8.424e-01    -0.075    -0.074     0.000     21.52
   HCO3-           6.436e-04   6.233e-04    -3.191    -3.205    -0.014     25.60
   CO3-2           9.501e-11   8.362e-11   -10.022   -10.078    -0.055     -8.75
H(0)          7.002e-15
   H2              3.501e-15   3.501e-15   -14.456   -14.456     0.000     28.53
O(0)          0.000e+00
   O2              0.000e+00   0.000e+00   -47.814   -47.813     0.000     33.01

------------------------------Saturation indices-------------------------------

  Phase               SI** log IAP   log K(356 K,  99 atm)

  CH4(g)          -23.96    -27.07   -3.11  CH4
  CO2(g)            1.85     -0.07   -1.93  CO2	 Pressure  98.2 atm, phi 0.727
  H2(g)           -11.29    -14.46   -3.17  H2
  H2O(g)           -0.26     -0.01    0.25  H2O	 Pressure   1.1 atm, phi 0.493
  O2(g)           -44.66    -47.81   -3.16  O2

**For a gas, SI = log10(fugacity). Fugacity = pressure * phi / 1 atm.
  For ideal gases, phi = 1.

Reaction step 5.

Using solution 1.	
Using pure phase assemblage 1.	
Using gas phase 1.	
Using temperature 1.	

-----------------------------------Gas phase-----------------------------------

Total pressure: 100.44      atmospheres          (Peng-Robinson calculation)
    Gas volume:   1.00e+00 liters
  Molar volume:   2.27e-01 liters/mole
   P * Vm / RT:  0.73871  (Compressibility Factor Z) 

                                                        Moles in gas
                                            ----------------------------------
Component         log P           P    phi     Initial       Final       Delta

CO2(g)             1.99   9.837e+01  0.771   0.000e+00   4.317e+00   4.317e+00
H2O(g)             0.31   2.064e+00  0.554   0.000e+00   9.059e-02   9.059e-02

-------------------------------Phase assemblage--------------------------------

                                                      Moles in assemblage
Phase               SI  log IAP  log K(T, P)   Initial       Final       Delta

CO2(g)            1.88    -0.12     -2.00    1.000e+01   4.922e+00  -5.078e+00

-----------------------------Solution composition------------------------------

	Elements           Molality       Moles

	C                 7.625e-01   7.612e-01

----------------------------Description of solution----------------------------

                                       pH  =   3.272      Charge balance
                                       pe  =   2.241      Adjusted to redox equilibrium
       Specific Conductance (µS/cm, 102°C)  = 691
                          Density (g/cm³)  =   0.97365
                               Volume (L)  =   1.05979
                        Activity of water  =   0.987
                           Ionic strength  =   5.509e-04
                       Mass of water (kg)  =   9.984e-01
                 Total alkalinity (eq/kg)  =  -1.656e-13
                       Total CO2 (mol/kg)  =   7.625e-01
                         Temperature (°C)  = 102.78
                           Pressure (atm)  = 100.44
                  Electrical balance (eq)  =   1.654e-13
 Percent error, 100*(Cat-|An|)/(Cat+|An|)  =   0.00
                               Iterations  =  81
                                  Total H  = 1.108313e+02
                                  Total O  = 5.693808e+01

----------------------------Distribution of species----------------------------

                                               Log       Log       Log    mole V
   Species          Molality    Activity  Molality  Activity     Gamma   cm³/mol

   H+              5.509e-04   5.345e-04    -3.259    -3.272    -0.013      0.00
   OH-             1.320e-09   1.279e-09    -8.879    -8.893    -0.014     -6.57
   H2O             5.551e+01   9.870e-01     1.744    -0.006     0.000     18.84
C(-4)         8.490e-30
   CH4             8.490e-30   8.491e-30   -29.071   -29.071     0.000     32.22
C(4)          7.625e-01
   CO2             7.619e-01   7.620e-01    -0.118    -0.118     0.000     20.82
   HCO3-           5.509e-04   5.341e-04    -3.259    -3.272    -0.013     24.83
   CO3-2           8.799e-11   7.772e-11   -10.056   -10.109    -0.054    -13.42
H(0)          6.574e-15
   H2              3.287e-15   3.287e-15   -14.483   -14.483     0.000     28.52
O(0)          0.000e+00
   O2              0.000e+00   0.000e+00   -43.592   -43.592     0.000     33.67

------------------------------Saturation indices-------------------------------

  Phase               SI** log IAP   log K(375 K, 100 atm)

  CH4(g)          -25.96    -29.07   -3.11  CH4
  CO2(g)            1.88     -0.12   -2.00  CO2	 Pressure  98.4 atm, phi 0.771
  H2(g)           -11.35    -14.48   -3.14  H2
  H2O(g)            0.06     -0.01   -0.06  H2O	 Pressure   2.1 atm, phi 0.554
  O2(g)           -40.43    -43.59   -3.16  O2

**For a gas, SI = log10(fugacity). Fugacity = pressure * phi / 1 atm.
  For ideal gases, phi = 1.

Reaction step 6.

Using solution 1.	
Using pure phase assemblage 1.	
Using gas phase 1.	
Using temperature 1.	

-----------------------------------Gas phase-----------------------------------

Total pressure: 102.16      atmospheres          (Peng-Robinson calculation)
    Gas volume:   1.00e+00 liters
  Molar volume:   2.49e-01 liters/mole
   P * Vm / RT:  0.78343  (Compressibility Factor Z) 

                                                        Moles in gas
                                            ----------------------------------
Component         log P           P    phi     Initial       Final       Delta

CO2(g)             1.99   9.855e+01  0.806   0.000e+00   3.877e+00   3.877e+00
H2O(g)             0.56   3.616e+00  0.599   0.000e+00   1.423e-01   1.423e-01

-------------------------------Phase assemblage--------------------------------

                                                      Moles in assemblage
Phase               SI  log IAP  log K(T, P)   Initial       Final       Delta

CO2(g)            1.90    -0.14     -2.04    1.000e+01   5.406e+00  -4.594e+00

-----------------------------Solution composition------------------------------

	Elements           Molality       Moles

	C                 7.184e-01   7.166e-01

----------------------------Description of solution----------------------------

                                       pH  =   3.344      Charge balance
                                       pe  =   2.015      Adjusted to redox equilibrium
       Specific Conductance (µS/cm, 122°C)  = 705
                          Density (g/cm³)  =   0.95793
                               Volume (L)  =   1.07417
                        Activity of water  =   0.988
                           Ionic strength  =   4.663e-04
                       Mass of water (kg)  =   9.974e-01
                 Total alkalinity (eq/kg)  =  -2.437e-13
                       Total CO2 (mol/kg)  =   7.184e-01
                         Temperature (°C)  = 122.22
                           Pressure (atm)  = 102.16
                  Electrical balance (eq)  =   2.431e-13
 Percent error, 100*(Cat-|An|)/(Cat+|An|)  =   0.00
                               Iterations  =  72
                                  Total H  = 1.107279e+02
                                  Total O  = 5.679714e+01

----------------------------Distribution of species----------------------------

                                               Log       Log       Log    mole V
   Species          Molality    Activity  Molality  Activity     Gamma   cm³/mol

   H+              4.663e-04   4.528e-04    -3.331    -3.344    -0.013      0.00
   OH-             2.916e-09   2.829e-09    -8.535    -8.548    -0.013     -8.42
   H2O             5.551e+01   9.878e-01     1.744    -0.005     0.000     19.14
C(-4)         1.600e-30
   CH4             1.600e-30   1.600e-30   -29.796   -29.796     0.000     32.22
C(4)          7.184e-01
   CO2             7.180e-01   7.181e-01    -0.144    -0.144     0.000     20.30
   HCO3-           4.663e-04   4.525e-04    -3.331    -3.344    -0.013     23.56
   CO3-2           7.534e-11   6.679e-11   -10.123   -10.175    -0.052    -19.96
H(0)          1.197e-14
   H2              5.983e-15   5.984e-15   -14.223   -14.223     0.000     28.52
O(0)          0.000e+00
   O2              0.000e+00   0.000e+00   -40.356   -40.356     0.000     34.35

------------------------------Saturation indices-------------------------------

  Phase               SI** log IAP   log K(395 K, 102 atm)

  CH4(g)          -26.71    -29.80   -3.08  CH4
  CO2(g)            1.90     -0.14   -2.04  CO2	 Pressure  98.5 atm, phi 0.806
  H2(g)           -11.13    -14.22   -3.09  H2
  H2O(g)            0.34     -0.01   -0.34  H2O	 Pressure   3.6 atm, phi 0.599
  O2(g)           -37.21    -40.36   -3.14  O2

**For a gas, SI = log10(fugacity). Fugacity = pressure * phi / 1 atm.
  For ideal gases, phi = 1.

Reaction step 7.

Using solution 1.	
Using pure phase assemblage 1.	
Using gas phase 1.	
Using temperature 1.	

-----------------------------------Gas phase-----------------------------------

Total pressure: 104.78      atmospheres          (Peng-Robinson calculation)
    Gas volume:   1.00e+00 liters
  Molar volume:   2.65e-01 liters/mole
   P * Vm / RT:  0.81445  (Compressibility Factor Z) 

                                                        Moles in gas
                                            ----------------------------------
Component         log P           P    phi     Initial       Final       Delta

CO2(g)             1.99   9.873e+01  0.834   0.000e+00   3.561e+00   3.561e+00
H2O(g)             0.78   6.054e+00  0.631   0.000e+00   2.184e-01   2.184e-01

-------------------------------Phase assemblage--------------------------------

                                                      Moles in assemblage
Phase               SI  log IAP  log K(T, P)   Initial       Final       Delta

CO2(g)            1.92    -0.15     -2.07    1.000e+01   5.741e+00  -4.259e+00

-----------------------------Solution composition------------------------------

	Elements           Molality       Moles

	C                 7.008e-01   6.980e-01

----------------------------Description of solution----------------------------

                                       pH  =   3.419      Charge balance
                                       pe  =   2.007      Adjusted to redox equilibrium
       Specific Conductance (µS/cm, 141°C)  = 698
                          Density (g/cm³)  =   0.94104
                               Volume (L)  =   1.09112
                        Activity of water  =   0.988
                           Ionic strength  =   3.917e-04
                       Mass of water (kg)  =   9.961e-01
                 Total alkalinity (eq/kg)  =  -4.875e-13
                       Total CO2 (mol/kg)  =   7.008e-01
                         Temperature (°C)  = 141.67
                           Pressure (atm)  = 104.78
                  Electrical balance (eq)  =   4.856e-13
 Percent error, 100*(Cat-|An|)/(Cat+|An|)  =   0.00
                               Iterations  =  67
                                  Total H  = 1.105757e+02
                                  Total O  = 5.668389e+01

----------------------------Distribution of species----------------------------

                                               Log       Log       Log    mole V
   Species          Molality    Activity  Molality  Activity     Gamma   cm³/mol

   H+              3.917e-04   3.807e-04    -3.407    -3.419    -0.012      0.00
   OH-             5.766e-09   5.598e-09    -8.239    -8.252    -0.013    -10.93
   H2O             5.551e+01   9.881e-01     1.744    -0.005     0.000     19.48
C(-4)         6.725e-33
   CH4             6.725e-33   6.725e-33   -32.172   -32.172     0.000     32.22
C(4)          7.008e-01
   CO2             7.004e-01   7.005e-01    -0.155    -0.155     0.000     19.90
   HCO3-           3.917e-04   3.805e-04    -3.407    -3.420    -0.013     21.71
   CO3-2           6.053e-11   5.386e-11   -10.218   -10.269    -0.051    -28.84
H(0)          7.909e-15
   H2              3.955e-15   3.955e-15   -14.403   -14.403     0.000     28.51
O(0)          5.102e-37
   O2              2.551e-37   2.551e-37   -36.593   -36.593     0.000     35.09

------------------------------Saturation indices-------------------------------

  Phase               SI** log IAP   log K(414 K, 105 atm)

  CH4(g)          -29.14    -32.17   -3.04  CH4
  CO2(g)            1.92     -0.15   -2.07  CO2	 Pressure  98.7 atm, phi 0.834
  H2(g)           -11.36    -14.40   -3.04  H2
  H2O(g)            0.58     -0.01   -0.59  H2O	 Pressure   6.1 atm, phi 0.631
  O2(g)           -33.49    -36.59   -3.11  O2

**For a gas, SI = log10(fugacity). Fugacity = pressure * phi / 1 atm.
  For ideal gases, phi = 1.

Reaction step 8.

Using solution 1.	
Using pure phase assemblage 1.	
Using gas phase 1.	
Using temperature 1.	

-----------------------------------Gas phase-----------------------------------

Total pressure: 108.58      atmospheres          (Peng-Robinson calculation)
    Gas volume:   1.00e+00 liters
  Molar volume:   2.74e-01 liters/mole
   P * Vm / RT:  0.83515  (Compressibility Factor Z) 

                                                        Moles in gas
                                            ----------------------------------
Component         log P           P    phi     Initial       Final       Delta

CO2(g)             2.00   9.886e+01  0.858   0.000e+00   3.322e+00   3.322e+00
H2O(g)             0.99   9.717e+00  0.652   0.000e+00   3.265e-01   3.265e-01

-------------------------------Phase assemblage--------------------------------

                                                      Moles in assemblage
Phase               SI  log IAP  log K(T, P)   Initial       Final       Delta

CO2(g)            1.93    -0.15     -2.08    1.000e+01   5.978e+00  -4.022e+00

-----------------------------Solution composition------------------------------

	Elements           Molality       Moles

	C                 7.040e-01   6.998e-01

----------------------------Description of solution----------------------------

                                       pH  =   3.497      Charge balance
                                       pe  =   1.891      Adjusted to redox equilibrium
       Specific Conductance (µS/cm, 161°C)  = 674
                          Density (g/cm³)  =   0.92291
                               Volume (L)  =   1.11053
                        Activity of water  =   0.988
                           Ionic strength  =   3.272e-04
                       Mass of water (kg)  =   9.941e-01
                 Total alkalinity (eq/kg)  =  -3.152e-12
                       Total CO2 (mol/kg)  =   7.040e-01
                         Temperature (°C)  = 161.11
                           Pressure (atm)  = 108.58
                  Electrical balance (eq)  =   3.133e-12
 Percent error, 100*(Cat-|An|)/(Cat+|An|)  =   0.00
                               Iterations  =  58
                                  Total H  = 1.103594e+02
                                  Total O  = 5.657940e+01

----------------------------Distribution of species----------------------------

                                               Log       Log       Log    mole V
   Species          Molality    Activity  Molality  Activity     Gamma   cm³/mol

   H+              3.272e-04   3.183e-04    -3.485    -3.497    -0.012      0.00
   OH-             1.032e-08   1.003e-08    -7.986    -7.999    -0.012    -14.30
   H2O             5.551e+01   9.880e-01     1.744    -0.005     0.000     19.88
C(-4)         2.567e-34
   CH4             2.567e-34   2.567e-34   -33.591   -33.591     0.000     32.22
C(4)          7.040e-01
   CO2             7.037e-01   7.037e-01    -0.153    -0.153     0.000     19.60
   HCO3-           3.272e-04   3.181e-04    -3.485    -3.497    -0.012     19.12
   CO3-2           4.621e-11   4.126e-11   -10.335   -10.384    -0.049    -40.82
H(0)          8.593e-15
   H2              4.297e-15   4.297e-15   -14.367   -14.367     0.000     28.51
O(0)          5.406e-34
   O2              2.703e-34   2.703e-34   -33.568   -33.568     0.000     35.97

------------------------------Saturation indices-------------------------------

  Phase               SI** log IAP   log K(434 K, 109 atm)

  CH4(g)          -30.62    -33.59   -2.97  CH4
  CO2(g)            1.93     -0.15   -2.08  CO2	 Pressure  98.9 atm, phi 0.858
  H2(g)           -11.38    -14.37   -2.98  H2
  H2O(g)            0.80     -0.01   -0.81  H2O	 Pressure   9.7 atm, phi 0.652
  O2(g)           -30.51    -33.57   -3.06  O2

**For a gas, SI = log10(fugacity). Fugacity = pressure * phi / 1 atm.
  For ideal gases, phi = 1.

Reaction step 9.

Using solution 1.	
Using pure phase assemblage 1.	
Using gas phase 1.	
Using temperature 1.	

-----------------------------------Gas phase-----------------------------------

Total pressure: 113.90      atmospheres          (Peng-Robinson calculation)
    Gas volume:   1.00e+00 liters
  Molar volume:   2.77e-01 liters/mole
   P * Vm / RT:  0.84729  (Compressibility Factor Z) 

                                                        Moles in gas
                                            ----------------------------------
Component         log P           P    phi     Initial       Final       Delta

CO2(g)             2.00   9.888e+01  0.879   0.000e+00   3.135e+00   3.135e+00
H2O(g)             1.18   1.502e+01  0.664   0.000e+00   4.760e-01   4.760e-01

-------------------------------Phase assemblage--------------------------------

                                                      Moles in assemblage
Phase               SI  log IAP  log K(T, P)   Initial       Final       Delta

CO2(g)            1.94    -0.14     -2.08    1.000e+01   6.146e+00  -3.854e+00

-----------------------------Solution composition------------------------------

	Elements           Molality       Moles

	C                 7.254e-01   7.191e-01

----------------------------Description of solution----------------------------

                                       pH  =   3.577      Charge balance
                                       pe  =   1.803      Adjusted to redox equilibrium
       Specific Conductance (µS/cm, 180°C)  = 640
                          Density (g/cm³)  =   0.90346
                               Volume (L)  =   1.13240
                        Activity of water  =   0.988
                           Ionic strength  =   2.722e-04
                       Mass of water (kg)  =   9.914e-01
                 Total alkalinity (eq/kg)  =  -8.563e-13
                       Total CO2 (mol/kg)  =   7.254e-01
                         Temperature (°C)  = 180.56
                           Pressure (atm)  = 113.90
                  Electrical balance (eq)  =   8.489e-13
 Percent error, 100*(Cat-|An|)/(Cat+|An|)  =   0.00
                               Iterations  =  61
                                  Total H  = 1.100604e+02
                                  Total O  = 5.646847e+01

----------------------------Distribution of species----------------------------

                                               Log       Log       Log    mole V
   Species          Molality    Activity  Molality  Activity     Gamma   cm³/mol

   H+              2.722e-04   2.650e-04    -3.565    -3.577    -0.012      0.00
   OH-             1.690e-08   1.643e-08    -7.772    -7.784    -0.012    -18.85
   H2O             5.551e+01   9.877e-01     1.744    -0.005     0.000     20.32
C(-4)         6.897e-36
   CH4             6.897e-36   6.897e-36   -35.161   -35.161     0.000     32.22
C(4)          7.254e-01
   CO2             7.251e-01   7.251e-01    -0.140    -0.140     0.000     19.38
   HCO3-           2.722e-04   2.648e-04    -3.565    -3.577    -0.012     15.55
   CO3-2           3.393e-11   3.040e-11   -10.469   -10.517    -0.048    -57.01
H(0)          8.153e-15
   H2              4.076e-15   4.077e-15   -14.390   -14.390     0.000     28.50
O(0)          4.064e-31
   O2              2.032e-31   2.032e-31   -30.692   -30.692     0.000     37.05

------------------------------Saturation indices-------------------------------

  Phase               SI** log IAP   log K(453 K, 114 atm)

  CH4(g)          -32.26    -35.16   -2.90  CH4
  CO2(g)            1.94     -0.14   -2.08  CO2	 Pressure  98.9 atm, phi 0.879
  H2(g)           -11.47    -14.39   -2.92  H2
  H2O(g)            1.00     -0.01   -1.00  H2O	 Pressure  15.0 atm, phi 0.664
  O2(g)           -27.70    -30.69   -2.99  O2

**For a gas, SI = log10(fugacity). Fugacity = pressure * phi / 1 atm.
  For ideal gases, phi = 1.

Reaction step 10.

Using solution 1.	
Using pure phase assemblage 1.	
Using gas phase 1.	
Using temperature 1.	

-----------------------------------Gas phase-----------------------------------

Total pressure: 121.12      atmospheres          (Peng-Robinson calculation)
    Gas volume:   1.00e+00 liters
  Molar volume:   2.73e-01 liters/mole
   P * Vm / RT:  0.85168  (Compressibility Factor Z) 

                                                        Moles in gas
                                            ----------------------------------
Component         log P           P    phi     Initial       Final       Delta

CO2(g)             1.99   9.869e+01  0.899   0.000e+00   2.985e+00   2.985e+00
H2O(g)             1.35   2.243e+01  0.667   0.000e+00   6.783e-01   6.783e-01

-------------------------------Phase assemblage--------------------------------

                                                      Moles in assemblage
Phase               SI  log IAP  log K(T, P)   Initial       Final       Delta

CO2(g)            1.95    -0.12     -2.07    1.000e+01   6.261e+00  -3.739e+00

-----------------------------Solution composition------------------------------

	Elements           Molality       Moles

	C                 7.640e-01   7.547e-01

----------------------------Description of solution----------------------------

                                       pH  =   3.658      Charge balance
                                       pe  =   1.723      Adjusted to redox equilibrium
       Specific Conductance (µS/cm, 200°C)  = 598
                          Density (g/cm³)  =   0.88254
                               Volume (L)  =   1.15688
                        Activity of water  =   0.987
                           Ionic strength  =   2.258e-04
                       Mass of water (kg)  =   9.878e-01
                 Total alkalinity (eq/kg)  =  -3.647e-13
                       Total CO2 (mol/kg)  =   7.640e-01
                         Temperature (°C)  = 200.00
                           Pressure (atm)  = 121.12
                  Electrical balance (eq)  =   3.603e-13
 Percent error, 100*(Cat-|An|)/(Cat+|An|)  =   0.00
                               Iterations  =  62
                                  Total H  = 1.096558e+02
                                  Total O  = 5.633729e+01

----------------------------Distribution of species----------------------------

                                               Log       Log       Log    mole V
   Species          Molality    Activity  Molality  Activity     Gamma   cm³/mol

   H+              2.258e-04   2.200e-04    -3.646    -3.658    -0.011      0.00
   OH-             2.549e-08   2.481e-08    -7.594    -7.605    -0.012    -25.04
   H2O             5.551e+01   9.870e-01     1.744    -0.006     0.000     20.84
C(-4)         1.936e-37
   CH4             1.936e-37   1.937e-37   -36.713   -36.713     0.000     32.22
C(4)          7.640e-01
   CO2             7.638e-01   7.639e-01    -0.117    -0.117     0.000     19.23
   HCO3-           2.258e-04   2.198e-04    -3.646    -3.658    -0.012     10.62
   CO3-2           2.426e-11   2.180e-11   -10.615   -10.661    -0.046    -79.08
H(0)          7.501e-15
   H2              3.751e-15   3.751e-15   -14.426   -14.426     0.000     28.50
O(0)          1.894e-28
   O2              9.470e-29   9.470e-29   -28.024   -28.024     0.000     38.44

------------------------------Saturation indices-------------------------------

  Phase               SI** log IAP   log K(473 K, 121 atm)

  CH4(g)          -33.89    -36.71   -2.82  CH4
  CO2(g)            1.95     -0.12   -2.07  CO2	 Pressure  98.7 atm, phi 0.899
  H2(g)           -11.58    -14.43   -2.85  H2
  H2O(g)            1.18     -0.01   -1.18  H2O	 Pressure  22.4 atm, phi 0.667
  O2(g)           -25.10    -28.02   -2.92  O2

**For a gas, SI = log10(fugacity). Fugacity = pressure * phi / 1 atm.
  For ideal gases, phi = 1.

------------------
End of simulation.
------------------

------------------------------------
Reading input data for simulation 2.
------------------------------------

------------------------------
End of Run after 0.04 Seconds.
------------------------------

