WARNING: Database file from DATABASE keyword is used; command line argument ignored.
   Input file: CO2_conc_PR_GP
  Output file: CO2_conc_PR_GP.out
Database file: ../database/phreeqc.dat

------------------
Reading data base.
------------------

	SOLUTION_MASTER_SPECIES
	SOLUTION_SPECIES
	PHASES
	EXCHANGE_MASTER_SPECIES
	EXCHANGE_SPECIES
	SURFACE_MASTER_SPECIES
	SURFACE_SPECIES
	RATES
	END
------------------------------------
Reading input data for simulation 1.
------------------------------------

	DATABASE ../database/phreeqc.dat
	SOLUTION 1 pH 7 charge
	GAS_PHASE 6
	    fixed_volume
	    CO2(g) 0
		H2O(g) 0
	USER_GRAPH
	 -chart_title "Using: GAS_PHASE with H2O(g)"
	 -plot_csv_file co2.dat
	 -axis_titles "Pressure / atm" "CO2 / (mol/kgw)"
	 -axis_scale x_axis 0 500
	 -axis_scale y_axis 0 2
	 -init true
	 10 x = PR_P("CO2(g)")
	 20 graph_x x
	 30 graph_y tot("C(4)")
	 -end
	REACTION
	 CO2 1
	 27 in 26
	END
-------------------------------------------
Beginning of initial solution calculations.
-------------------------------------------

Initial solution 1.	pH 7 charge

-----------------------------Solution composition------------------------------

	Elements           Molality       Moles

	Pure water     

----------------------------Description of solution----------------------------

                                       pH  =   7.000    
                                       pe  =   4.000    
       Specific Conductance (uS/cm, 25 oC) = 0
                          Density (g/cm3)  =   0.99704
                               Volume (L)  =   1.00297
                        Activity of water  =   1.000
                           Ionic strength  =   1.007e-07
                       Mass of water (kg)  =   1.000e+00
                 Total alkalinity (eq/kg)  =   1.217e-09
                    Total carbon (mol/kg)  =   0.000e+00
                       Total CO2 (mol/kg)  =   0.000e+00
                      Temperature (deg C)  =  25.00
                  Electrical balance (eq)  =  -1.217e-09
 Percent error, 100*(Cat-|An|)/(Cat+|An|)  =  -0.60
                               Iterations  =   0
                                  Total H  = 1.110124e+02
                                  Total O  = 5.550622e+01

----------------------------Distribution of species----------------------------

                                               Log       Log       Log    mole V
   Species          Molality    Activity  Molality  Activity     Gamma   cm3/mol

   OH-             1.013e-07   1.012e-07    -6.995    -6.995    -0.000     -4.14
   H+              1.001e-07   1.000e-07    -7.000    -7.000    -0.000      0.00
   H2O             5.551e+01   1.000e+00     1.744     0.000     0.000     18.07
H(0)          1.416e-25
   H2              7.079e-26   7.079e-26   -25.150   -25.150     0.000     28.61
O(0)          0.000e+00
   O2              0.000e+00   0.000e+00   -42.080   -42.080     0.000     30.40

------------------------------Saturation indices-------------------------------

	Phase               SI   log IAP   log K(298 K,   1 atm)

	H2(g)           -22.05    -25.15   -3.10  H2
	H2O(g)           -1.50      0.00    1.50  H2O
	O2(g)           -39.19    -42.08   -2.89  O2


-----------------------------------------
Beginning of batch-reaction calculations.
-----------------------------------------

Reaction step 1.

Using solution 1.	pH 7 charge
Using gas phase 6.	
Using reaction 1.	

Reaction 1.	

	  1.038e+00 moles of the following reaction have been added:

	                 Relative
	Reactant            moles

	CO2                  1.00000

	                 Relative
	Element             moles
	C                    1.00000
	O                    2.00000

-----------------------------------Gas phase-----------------------------------

Total pressure: 13.70      atmospheres          (Peng-Robinson calculation)
    Gas volume:   1.00e+00 liters
  Molar volume:   1.64e+00 liters/mole
   P * Vm / RT:  0.92075  (Compressibility Factor Z) 

                                                        Moles in gas
                                            ----------------------------------
Component         log P           P    phi     Initial       Final       Delta

CO2(g)             1.14   1.366e+01  0.925   0.000e+00   6.066e-01   6.066e-01
H2O(g)            -1.44   3.603e-02  0.874   0.000e+00   1.600e-03   1.600e-03

-----------------------------Solution composition------------------------------

	Elements           Molality       Moles

	C                 4.319e-01   4.319e-01

----------------------------Description of solution----------------------------

                                       pH  =   3.357      Charge balance
                                       pe  =  14.537      Adjusted to redox equilibrium
       Specific Conductance (uS/cm, 25 oC) = 174
                          Density (g/cm3)  =   1.00349
                               Volume (L)  =   1.03652
                        Activity of water  =   0.993
                           Ionic strength  =   4.497e-04
                       Mass of water (kg)  =   1.000e+00
                 Total alkalinity (eq/kg)  =   1.216e-09
                       Total CO2 (mol/kg)  =   4.319e-01
                      Temperature (deg C)  =  25.00
                           Pressure (atm)  = 13.70
                  Electrical balance (eq)  =  -1.216e-09
 Percent error, 100*(Cat-|An|)/(Cat+|An|)  =  -0.00
                               Iterations  =  37
                                  Total H  = 1.110092e+02
                                  Total O  = 5.636833e+01

----------------------------Distribution of species----------------------------

                                               Log       Log       Log    mole V
   Species          Molality    Activity  Molality  Activity     Gamma   cm3/mol

   H+              4.497e-04   4.393e-04    -3.347    -3.357    -0.010      0.00
   OH-             2.371e-11   2.314e-11   -10.625   -10.636    -0.011     -4.07
   H2O             5.551e+01   9.927e-01     1.744    -0.003     0.000     18.06
C(-4)         0.000e+00
   CH4             0.000e+00   0.000e+00  -119.128  -119.128     0.000     32.22
C(4)          4.319e-01
   CO2             4.314e-01   4.315e-01    -0.365    -0.365     0.000     30.29
   HCO3-           4.497e-04   4.390e-04    -3.347    -3.358    -0.010     24.59
   CO3-2           5.237e-11   4.758e-11   -10.281   -10.323    -0.042     -4.31
H(0)          2.273e-39
   H2              1.137e-39   1.137e-39   -38.944   -38.944     0.000     28.60
O(0)          6.189e-15
   O2              3.094e-15   3.095e-15   -14.509   -14.509     0.000     30.38

------------------------------Saturation indices-------------------------------

	Phase               SI   log IAP   log K(298 K,  14 atm)

	CH4(g)         -116.28   -119.13   -2.85  CH4
	CO2(g)            1.10     -0.37   -1.47  CO2	 Pressure  13.7 atm, phi 0.925.
	H2(g)           -35.84    -38.94   -3.11  H2
	H2O(g)           -1.50     -0.00    1.50  H2O	 Pressure   0.0 atm, phi 0.874.
	O2(g)           -11.61    -14.51   -2.90  O2


Reaction step 2.

Using solution 1.	pH 7 charge
Using gas phase 6.	
Using reaction 1.	

Reaction 1.	

	  2.077e+00 moles of the following reaction have been added:

	                 Relative
	Reactant            moles

	CO2                  1.00000

	                 Relative
	Element             moles
	C                    1.00000
	O                    2.00000

-----------------------------------Gas phase-----------------------------------

Total pressure: 26.81      atmospheres          (Peng-Robinson calculation)
    Gas volume:   1.00e+00 liters
  Molar volume:   7.64e-01 liters/mole
   P * Vm / RT:  0.83728  (Compressibility Factor Z) 

                                                        Moles in gas
                                            ----------------------------------
Component         log P           P    phi     Initial       Final       Delta

CO2(g)             1.43   2.677e+01  0.856   0.000e+00   1.307e+00   1.307e+00
H2O(g)            -1.38   4.172e-02  0.757   0.000e+00   2.037e-03   2.037e-03

-----------------------------Solution composition------------------------------

	Elements           Molality       Moles

	C                 7.701e-01   7.701e-01

----------------------------Description of solution----------------------------

                                       pH  =   3.230      Charge balance
                                       pe  =  14.552      Adjusted to redox equilibrium
       Specific Conductance (uS/cm, 25 oC) = 234
                          Density (g/cm3)  =   1.00855
                               Volume (L)  =   1.06252
                        Activity of water  =   0.987
                           Ionic strength  =   6.048e-04
                       Mass of water (kg)  =   1.000e+00
                 Total alkalinity (eq/kg)  =   1.216e-09
                       Total CO2 (mol/kg)  =   7.701e-01
                      Temperature (deg C)  =  25.00
                           Pressure (atm)  = 26.81
                  Electrical balance (eq)  =  -1.216e-09
 Percent error, 100*(Cat-|An|)/(Cat+|An|)  =  -0.00
                               Iterations  =  45
                                  Total H  = 1.110084e+02
                                  Total O  = 5.704436e+01

----------------------------Distribution of species----------------------------

                                               Log       Log       Log    mole V
   Species          Molality    Activity  Molality  Activity     Gamma   cm3/mol

   H+              6.048e-04   5.888e-04    -3.218    -3.230    -0.012      0.00
   OH-             1.786e-11   1.737e-11   -10.748   -10.760    -0.012     -4.02
   H2O             5.551e+01   9.869e-01     1.744    -0.006     0.000     18.05
C(-4)         0.000e+00
   CH4             0.000e+00   0.000e+00  -117.985  -117.985     0.000     32.22
C(4)          7.701e-01
   CO2             7.695e-01   7.696e-01    -0.114    -0.114     0.000     30.32
   HCO3-           6.048e-04   5.883e-04    -3.218    -3.230    -0.012     24.61
   CO3-2           5.395e-11   4.831e-11   -10.268   -10.316    -0.048     -4.18
H(0)          3.750e-39
   H2              1.875e-39   1.875e-39   -38.727   -38.727     0.000     28.59
O(0)          2.187e-15
   O2              1.093e-15   1.094e-15   -14.961   -14.961     0.000     30.36

------------------------------Saturation indices-------------------------------

	Phase               SI   log IAP   log K(298 K,  27 atm)

	CH4(g)         -115.13   -117.98   -2.86  CH4
	CO2(g)            1.36     -0.11   -1.47  CO2	 Pressure  26.8 atm, phi 0.856.
	H2(g)           -35.61    -38.73   -3.11  H2
	H2O(g)           -1.50     -0.01    1.49  H2O	 Pressure   0.0 atm, phi 0.757.
	O2(g)           -12.05    -14.96   -2.91  O2


Reaction step 3.

Using solution 1.	pH 7 charge
Using gas phase 6.	
Using reaction 1.	

Reaction 1.	

	  3.115e+00 moles of the following reaction have been added:

	                 Relative
	Reactant            moles

	CO2                  1.00000

	                 Relative
	Element             moles
	C                    1.00000
	O                    2.00000

-----------------------------------Gas phase-----------------------------------

Total pressure: 38.65      atmospheres          (Peng-Robinson calculation)
    Gas volume:   1.00e+00 liters
  Molar volume:   4.76e-01 liters/mole
   P * Vm / RT:  0.75169  (Compressibility Factor Z) 

                                                        Moles in gas
                                            ----------------------------------
Component         log P           P    phi     Initial       Final       Delta

CO2(g)             1.59   3.860e+01  0.796   0.000e+00   2.099e+00   2.099e+00
H2O(g)            -1.31   4.852e-02  0.654   0.000e+00   2.638e-03   2.638e-03

-----------------------------Solution composition------------------------------

	Elements           Molality       Moles

	C                 1.016e+00   1.016e+00

----------------------------Description of solution----------------------------

                                       pH  =   3.168      Charge balance
                                       pe  =  14.713      Adjusted to redox equilibrium
       Specific Conductance (uS/cm, 25 oC) = 270
                          Density (g/cm3)  =   1.01225
                               Volume (L)  =   1.08125
                        Activity of water  =   0.983
                           Ionic strength  =   6.987e-04
                       Mass of water (kg)  =   9.999e-01
                 Total alkalinity (eq/kg)  =   1.216e-09
                       Total CO2 (mol/kg)  =   1.016e+00
                      Temperature (deg C)  =  25.00
                           Pressure (atm)  = 38.65
                  Electrical balance (eq)  =  -1.216e-09
 Percent error, 100*(Cat-|An|)/(Cat+|An|)  =  -0.00
                               Iterations  =  37
                                  Total H  = 1.110072e+02
                                  Total O  = 5.753627e+01

----------------------------Distribution of species----------------------------

                                               Log       Log       Log    mole V
   Species          Molality    Activity  Molality  Activity     Gamma   cm3/mol

   H+              6.987e-04   6.789e-04    -3.156    -3.168    -0.012      0.00
   OH-             1.562e-11   1.516e-11   -10.806   -10.819    -0.013     -3.97
   H2O             5.551e+01   9.827e-01     1.744    -0.008     0.000     18.04
C(-4)         0.000e+00
   CH4             0.000e+00   0.000e+00  -118.666  -118.666     0.000     32.22
C(4)          1.016e+00
   CO2             1.016e+00   1.016e+00     0.007     0.007     0.000     30.35
   HCO3-           6.987e-04   6.784e-04    -3.156    -3.169    -0.013     24.62
   CO3-2           5.513e-11   4.897e-11   -10.259   -10.310    -0.051     -4.08
H(0)          2.337e-39
   H2              1.168e-39   1.169e-39   -38.932   -38.932     0.000     28.59
O(0)          5.447e-15
   O2              2.723e-15   2.724e-15   -14.565   -14.565     0.000     30.35

------------------------------Saturation indices-------------------------------

	Phase               SI   log IAP   log K(298 K,  39 atm)

	CH4(g)         -115.80   -118.67   -2.86  CH4
	CO2(g)            1.49      0.01   -1.48  CO2	 Pressure  38.6 atm, phi 0.796.
	H2(g)           -35.81    -38.93   -3.12  H2
	H2O(g)           -1.50     -0.01    1.49  H2O	 Pressure   0.0 atm, phi 0.654.
	O2(g)           -11.65    -14.56   -2.91  O2


Reaction step 4.

Using solution 1.	pH 7 charge
Using gas phase 6.	
Using reaction 1.	

Reaction 1.	

	  4.154e+00 moles of the following reaction have been added:

	                 Relative
	Reactant            moles

	CO2                  1.00000

	                 Relative
	Element             moles
	C                    1.00000
	O                    2.00000

-----------------------------------Gas phase-----------------------------------

Total pressure: 48.56      atmospheres          (Peng-Robinson calculation)
    Gas volume:   1.00e+00 liters
  Molar volume:   3.36e-01 liters/mole
   P * Vm / RT:  0.66698  (Compressibility Factor Z) 

                                                        Moles in gas
                                            ----------------------------------
Component         log P           P    phi     Initial       Final       Delta

CO2(g)             1.69   4.851e+01  0.745   0.000e+00   2.973e+00   2.973e+00
H2O(g)            -1.25   5.633e-02  0.566   0.000e+00   3.452e-03   3.452e-03

-----------------------------Solution composition------------------------------

	Elements           Molality       Moles

	C                 1.181e+00   1.181e+00

----------------------------Description of solution----------------------------

                                       pH  =   3.134      Charge balance
                                       pe  =  15.440      Adjusted to redox equilibrium
       Specific Conductance (uS/cm, 25 oC) = 292
                          Density (g/cm3)  =   1.01477
                               Volume (L)  =   1.09366
                        Activity of water  =   0.980
                           Ionic strength  =   7.567e-04
                       Mass of water (kg)  =   9.999e-01
                 Total alkalinity (eq/kg)  =   1.216e-09
                       Total CO2 (mol/kg)  =   1.181e+00
                      Temperature (deg C)  =  25.00
                           Pressure (atm)  = 48.56
                  Electrical balance (eq)  =  -1.216e-09
 Percent error, 100*(Cat-|An|)/(Cat+|An|)  =  -0.00
                               Iterations  =  46
                                  Total H  = 1.110055e+02
                                  Total O  = 5.786533e+01

----------------------------Distribution of species----------------------------

                                               Log       Log       Log    mole V
   Species          Molality    Activity  Molality  Activity     Gamma   cm3/mol

   H+              7.567e-04   7.345e-04    -3.121    -3.134    -0.013      0.00
   OH-             1.454e-11   1.409e-11   -10.837   -10.851    -0.014     -3.94
   H2O             5.551e+01   9.799e-01     1.744    -0.009     0.000     18.03
C(-4)         0.000e+00
   CH4             0.000e+00   0.000e+00  -124.141  -124.141     0.000     32.22
C(4)          1.181e+00
   CO2             1.181e+00   1.181e+00     0.072     0.072     0.000     30.37
   HCO3-           7.567e-04   7.338e-04    -3.121    -3.134    -0.013     24.63
   CO3-2           5.601e-11   4.954e-11   -10.252   -10.305    -0.053     -3.99
H(0)          0.000e+00
   H2              0.000e+00   0.000e+00   -40.321   -40.321     0.000     28.58
O(0)          3.181e-12
   O2              1.591e-12   1.591e-12   -11.798   -11.798     0.000     30.33

------------------------------Saturation indices-------------------------------

	Phase               SI   log IAP   log K(298 K,  49 atm)

	CH4(g)         -121.27   -124.14   -2.87  CH4
	CO2(g)            1.56      0.07   -1.49  CO2	 Pressure  48.5 atm, phi 0.745.
	H2(g)           -37.20    -40.32   -3.13  H2
	H2O(g)           -1.50     -0.01    1.49  H2O	 Pressure   0.1 atm, phi 0.566.
	O2(g)            -8.88    -11.80   -2.92  O2


Reaction step 5.

Using solution 1.	pH 7 charge
Using gas phase 6.	
Using reaction 1.	

Reaction 1.	

	  5.192e+00 moles of the following reaction have been added:

	                 Relative
	Reactant            moles

	CO2                  1.00000

	                 Relative
	Element             moles
	C                    1.00000
	O                    2.00000

-----------------------------------Gas phase-----------------------------------

Total pressure: 56.13      atmospheres          (Peng-Robinson calculation)
    Gas volume:   1.00e+00 liters
  Molar volume:   2.55e-01 liters/mole
   P * Vm / RT:  0.58603  (Compressibility Factor Z) 

                                                        Moles in gas
                                            ----------------------------------
Component         log P           P    phi     Initial       Final       Delta

CO2(g)             1.75   5.607e+01  0.706   0.000e+00   3.910e+00   3.910e+00
H2O(g)            -1.19   6.486e-02  0.493   0.000e+00   4.524e-03   4.524e-03

-----------------------------Solution composition------------------------------

	Elements           Molality       Moles

	C                 1.282e+00   1.282e+00

----------------------------Description of solution----------------------------

                                       pH  =   3.115      Charge balance
                                       pe  =  14.741      Adjusted to redox equilibrium
       Specific Conductance (uS/cm, 25 oC) = 305
                          Density (g/cm3)  =   1.01636
                               Volume (L)  =   1.10114
                        Activity of water  =   0.978
                           Ionic strength  =   7.910e-04
                       Mass of water (kg)  =   9.999e-01
                 Total alkalinity (eq/kg)  =   1.217e-09
                       Total CO2 (mol/kg)  =   1.282e+00
                      Temperature (deg C)  =  25.00
                           Pressure (atm)  = 56.13
                  Electrical balance (eq)  =  -1.216e-09
 Percent error, 100*(Cat-|An|)/(Cat+|An|)  =  -0.00
                               Iterations  =  42
                                  Total H  = 1.110034e+02
                                  Total O  = 5.806549e+01

----------------------------Distribution of species----------------------------

                                               Log       Log       Log    mole V
   Species          Molality    Activity  Molality  Activity     Gamma   cm3/mol

   H+              7.910e-04   7.673e-04    -3.102    -3.115    -0.013      0.00
   OH-             1.400e-11   1.356e-11   -10.854   -10.868    -0.014     -3.91
   H2O             5.551e+01   9.782e-01     1.744    -0.010     0.000     18.02
C(-4)         0.000e+00
   CH4             0.000e+00   0.000e+00  -118.368  -118.368     0.000     32.22
C(4)          1.282e+00
   CO2             1.281e+00   1.281e+00     0.108     0.108     0.000     30.39
   HCO3-           7.910e-04   7.666e-04    -3.102    -3.115    -0.014     24.64
   CO3-2           5.665e-11   4.997e-11   -10.247   -10.301    -0.055     -3.93
H(0)          2.576e-39
   H2              1.288e-39   1.288e-39   -38.890   -38.890     0.000     28.58
O(0)          4.282e-15
   O2              2.141e-15   2.141e-15   -14.669   -14.669     0.000     30.32

------------------------------Saturation indices-------------------------------

	Phase               SI   log IAP   log K(298 K,  56 atm)

	CH4(g)         -115.49   -118.37   -2.87  CH4
	CO2(g)            1.60      0.11   -1.49  CO2	 Pressure  56.1 atm, phi 0.706.
	H2(g)           -35.76    -38.89   -3.13  H2
	H2O(g)           -1.49     -0.01    1.49  H2O	 Pressure   0.1 atm, phi 0.493.
	O2(g)           -11.75    -14.67   -2.92  O2


Reaction step 6.

Using solution 1.	pH 7 charge
Using gas phase 6.	
Using reaction 1.	

Reaction 1.	

	  6.231e+00 moles of the following reaction have been added:

	                 Relative
	Reactant            moles

	CO2                  1.00000

	                 Relative
	Element             moles
	C                    1.00000
	O                    2.00000

-----------------------------------Gas phase-----------------------------------

Total pressure: 61.26      atmospheres          (Peng-Robinson calculation)
    Gas volume:   1.00e+00 liters
  Molar volume:   2.04e-01 liters/mole
   P * Vm / RT:  0.51099  (Compressibility Factor Z) 

                                                        Moles in gas
                                            ----------------------------------
Component         log P           P    phi     Initial       Final       Delta

CO2(g)             1.79   6.119e+01  0.679   0.000e+00   4.894e+00   4.894e+00
H2O(g)            -1.13   7.376e-02  0.435   0.000e+00   5.900e-03   5.900e-03

-----------------------------Solution composition------------------------------

	Elements           Molality       Moles

	C                 1.337e+00   1.337e+00

----------------------------Description of solution----------------------------

                                       pH  =   3.105      Charge balance
                                       pe  =  14.831      Adjusted to redox equilibrium
       Specific Conductance (uS/cm, 25 oC) = 313
                          Density (g/cm3)  =   1.01726
                               Volume (L)  =   1.10515
                        Activity of water  =   0.977
                           Ionic strength  =   8.096e-04
                       Mass of water (kg)  =   9.999e-01
                 Total alkalinity (eq/kg)  =   1.217e-09
                       Total CO2 (mol/kg)  =   1.337e+00
                      Temperature (deg C)  =  25.00
                           Pressure (atm)  = 61.26
                  Electrical balance (eq)  =  -1.217e-09
 Percent error, 100*(Cat-|An|)/(Cat+|An|)  =  -0.00
                               Iterations  =  49
                                  Total H  = 1.110006e+02
                                  Total O  = 5.817361e+01

----------------------------Distribution of species----------------------------

                                               Log       Log       Log    mole V
   Species          Molality    Activity  Molality  Activity     Gamma   cm3/mol

   H+              8.096e-04   7.851e-04    -3.092    -3.105    -0.013      0.00
   OH-             1.373e-11   1.330e-11   -10.862   -10.876    -0.014     -3.89
   H2O             5.551e+01   9.773e-01     1.744    -0.010     0.000     18.02
C(-4)         0.000e+00
   CH4             0.000e+00   0.000e+00  -118.990  -118.990     0.000     32.22
C(4)          1.337e+00
   CO2             1.336e+00   1.336e+00     0.126     0.126     0.000     30.40
   HCO3-           8.096e-04   7.844e-04    -3.092    -3.105    -0.014     24.65
   CO3-2           5.706e-11   5.026e-11   -10.244   -10.299    -0.055     -3.89
H(0)          1.774e-39
   H2              8.870e-40   8.872e-40   -39.052   -39.052     0.000     28.58
O(0)          8.911e-15
   O2              4.455e-15   4.456e-15   -14.351   -14.351     0.000     30.31

------------------------------Saturation indices-------------------------------

	Phase               SI   log IAP   log K(298 K,  61 atm)

	CH4(g)         -116.11   -118.99   -2.88  CH4
	CO2(g)            1.62      0.13   -1.49  CO2	 Pressure  61.2 atm, phi 0.679.
	H2(g)           -35.92    -39.05   -3.13  H2
	H2O(g)           -1.49     -0.01    1.48  H2O	 Pressure   0.1 atm, phi 0.435.
	O2(g)           -11.43    -14.35   -2.92  O2


Reaction step 7.

Using solution 1.	pH 7 charge
Using gas phase 6.	
Using reaction 1.	

Reaction 1.	

	  7.269e+00 moles of the following reaction have been added:

	                 Relative
	Reactant            moles

	CO2                  1.00000

	                 Relative
	Element             moles
	C                    1.00000
	O                    2.00000

-----------------------------------Gas phase-----------------------------------

Total pressure: 64.14      atmospheres          (Peng-Robinson calculation)
    Gas volume:   1.00e+00 liters
  Molar volume:   1.69e-01 liters/mole
   P * Vm / RT:  0.44317  (Compressibility Factor Z) 

                                                        Moles in gas
                                            ----------------------------------
Component         log P           P    phi     Initial       Final       Delta

CO2(g)             1.81   6.406e+01  0.663   0.000e+00   5.908e+00   5.908e+00
H2O(g)            -1.08   8.261e-02  0.389   0.000e+00   7.619e-03   7.619e-03

-----------------------------Solution composition------------------------------

	Elements           Molality       Moles

	C                 1.362e+00   1.362e+00

----------------------------Description of solution----------------------------

                                       pH  =   3.101      Charge balance
                                       pe  =   2.512      Adjusted to redox equilibrium
       Specific Conductance (uS/cm, 25 oC) = 316
                          Density (g/cm3)  =   1.01769
                               Volume (L)  =   1.10693
                        Activity of water  =   0.977
                           Ionic strength  =   8.183e-04
                       Mass of water (kg)  =   9.998e-01
                 Total alkalinity (eq/kg)  =   1.217e-09
                       Total CO2 (mol/kg)  =   1.362e+00
                      Temperature (deg C)  =  25.00
                           Pressure (atm)  = 64.14
                  Electrical balance (eq)  =  -1.217e-09
 Percent error, 100*(Cat-|An|)/(Cat+|An|)  =  -0.00
                               Iterations  =  55
                                  Total H  = 1.109972e+02
                                  Total O  = 5.822172e+01

----------------------------Distribution of species----------------------------

                                               Log       Log       Log    mole V
   Species          Molality    Activity  Molality  Activity     Gamma   cm3/mol

   H+              8.183e-04   7.934e-04    -3.087    -3.101    -0.013      0.00
   OH-             1.362e-11   1.319e-11   -10.866   -10.880    -0.014     -3.88
   H2O             5.551e+01   9.768e-01     1.744    -0.010     0.000     18.02
C(-4)         4.001e-21
   CH4             4.001e-21   4.002e-21   -20.398   -20.398     0.000     32.22
C(4)          1.362e+00
   CO2             1.361e+00   1.361e+00     0.134     0.134     0.000     30.40
   HCO3-           8.183e-04   7.926e-04    -3.087    -3.101    -0.014     24.65
   CO3-2           5.728e-11   5.043e-11   -10.242   -10.297    -0.055     -3.86
H(0)          7.834e-15
   H2              3.917e-15   3.918e-15   -14.407   -14.407     0.000     28.58
O(0)          0.000e+00
   O2              0.000e+00   0.000e+00   -63.644   -63.644     0.000     30.31

------------------------------Saturation indices-------------------------------

	Phase               SI   log IAP   log K(298 K,  64 atm)

	CH4(g)          -17.52    -20.40   -2.88  CH4
	CO2(g)            1.63      0.13   -1.49  CO2	 Pressure  64.1 atm, phi 0.663.
	H2(g)           -11.27    -14.41   -3.13  H2
	H2O(g)           -1.49     -0.01    1.48  H2O	 Pressure   0.1 atm, phi 0.389.
	O2(g)           -60.72    -63.64   -2.93  O2


Reaction step 8.

WARNING: Numerical method failed, switching to numerical derivatives.
WARNING: Maximum iterations exceeded, 100

WARNING: Numerical method failed with this set of convergence parameters.

WARNING: Trying smaller step size, pe step size 10, 5 ... 

WARNING: Maximum iterations exceeded, 200

WARNING: Numerical method failed with this set of convergence parameters.

WARNING: Trying reduced tolerance 1e-16 ...

Using solution 1.	pH 7 charge
Using gas phase 6.	
Using reaction 1.	

Reaction 1.	

	  8.308e+00 moles of the following reaction have been added:

	                 Relative
	Reactant            moles

	CO2                  1.00000

	                 Relative
	Element             moles
	C                    1.00000
	O                    2.00000

-----------------------------------Gas phase-----------------------------------

Total pressure: 65.14      atmospheres          (Peng-Robinson calculation)
    Gas volume:   1.00e+00 liters
  Molar volume:   1.44e-01 liters/mole
   P * Vm / RT:  0.38314  (Compressibility Factor Z) 

                                                        Moles in gas
                                            ----------------------------------
Component         log P           P    phi     Initial       Final       Delta

CO2(g)             1.81   6.505e+01  0.657   0.000e+00   6.939e+00   6.939e+00
H2O(g)            -1.04   9.110e-02  0.353   0.000e+00   9.718e-03   9.718e-03

-----------------------------Solution composition------------------------------

	Elements           Molality       Moles

	C                 1.369e+00   1.369e+00

----------------------------Description of solution----------------------------

                                       pH  =   3.099      Charge balance
                                       pe  =   1.306      Adjusted to redox equilibrium
       Specific Conductance (uS/cm, 25 oC) = 317
                          Density (g/cm3)  =   1.01782
                               Volume (L)  =   1.10740
                        Activity of water  =   0.977
                           Ionic strength  =   8.208e-04
                       Mass of water (kg)  =   9.998e-01
                 Total alkalinity (eq/kg)  =   1.217e-09
                       Total CO2 (mol/kg)  =   1.369e+00
                      Temperature (deg C)  =  25.00
                           Pressure (atm)  = 65.14
                  Electrical balance (eq)  =  -1.217e-09
 Percent error, 100*(Cat-|An|)/(Cat+|An|)  =  -0.00
                               Iterations  = 139
                                  Total H  = 1.109930e+02
                                  Total O  = 5.823388e+01

----------------------------Distribution of species----------------------------

                                               Log       Log       Log    mole V
   Species          Molality    Activity  Molality  Activity     Gamma   cm3/mol

   H+              8.208e-04   7.958e-04    -3.086    -3.099    -0.013      0.00
   OH-             1.359e-11   1.316e-11   -10.867   -10.881    -0.014     -3.87
   H2O             5.551e+01   9.767e-01     1.744    -0.010     0.000     18.02
C(-4)         1.833e-11
   CH4             1.833e-11   1.833e-11   -10.737   -10.737     0.000     32.22
C(4)          1.369e+00
   CO2             1.368e+00   1.368e+00     0.136     0.136     0.000     30.41
   HCO3-           8.208e-04   7.950e-04    -3.086    -3.100    -0.014     24.65
   CO3-2           5.736e-11   5.049e-11   -10.241   -10.297    -0.055     -3.86
H(0)          2.034e-12
   H2              1.017e-12   1.017e-12   -11.993   -11.993     0.000     28.58
O(0)          0.000e+00
   O2              0.000e+00   0.000e+00   -68.474   -68.474     0.000     30.31

------------------------------Saturation indices-------------------------------

	Phase               SI   log IAP   log K(298 K,  65 atm)

	CH4(g)           -7.86    -10.74   -2.88  CH4
	CO2(g)            1.63      0.14   -1.49  CO2	 Pressure  65.0 atm, phi 0.657.
	H2(g)            -8.86    -11.99   -3.13  H2
	H2O(g)           -1.49     -0.01    1.48  H2O	 Pressure   0.1 atm, phi 0.353.
	O2(g)           -65.55    -68.47   -2.93  O2


Reaction step 9.

Using solution 1.	pH 7 charge
Using gas phase 6.	
Using reaction 1.	

Reaction 1.	

	  9.346e+00 moles of the following reaction have been added:

	                 Relative
	Reactant            moles

	CO2                  1.00000

	                 Relative
	Element             moles
	C                    1.00000
	O                    2.00000

-----------------------------------Gas phase-----------------------------------

Total pressure: 65.14      atmospheres          (Peng-Robinson calculation)
    Gas volume:   1.00e+00 liters
  Molar volume:   1.25e-01 liters/mole
   P * Vm / RT:  0.33324  (Compressibility Factor Z) 

                                                        Moles in gas
                                            ----------------------------------
Component         log P           P    phi     Initial       Final       Delta

CO2(g)             1.81   6.504e+01  0.657   0.000e+00   7.978e+00   7.978e+00
H2O(g)            -1.00   9.954e-02  0.323   0.000e+00   1.221e-02   1.221e-02

-----------------------------Solution composition------------------------------

	Elements           Molality       Moles

	C                 1.369e+00   1.369e+00

----------------------------Description of solution----------------------------

                                       pH  =   3.099      Charge balance
                                       pe  =  16.272      Adjusted to redox equilibrium
       Specific Conductance (uS/cm, 25 oC) = 317
                          Density (g/cm3)  =   1.01782
                               Volume (L)  =   1.10735
                        Activity of water  =   0.977
                           Ionic strength  =   8.208e-04
                       Mass of water (kg)  =   9.998e-01
                 Total alkalinity (eq/kg)  =   1.217e-09
                       Total CO2 (mol/kg)  =   1.369e+00
                      Temperature (deg C)  =  25.00
                           Pressure (atm)  = 65.14
                  Electrical balance (eq)  =  -1.217e-09
 Percent error, 100*(Cat-|An|)/(Cat+|An|)  =  -0.00
                               Iterations  = 100
                                  Total H  = 1.109880e+02
                                  Total O  = 5.823110e+01

----------------------------Distribution of species----------------------------

                                               Log       Log       Log    mole V
   Species          Molality    Activity  Molality  Activity     Gamma   cm3/mol

   H+              8.208e-04   7.958e-04    -3.086    -3.099    -0.013      0.00
   OH-             1.359e-11   1.316e-11   -10.867   -10.881    -0.014     -3.87
   H2O             5.551e+01   9.767e-01     1.744    -0.010     0.000     18.02
C(-4)         0.000e+00
   CH4             0.000e+00   0.000e+00  -130.466  -130.466     0.000     32.22
C(4)          1.369e+00
   CO2             1.368e+00   1.368e+00     0.136     0.136     0.000     30.41
   HCO3-           8.208e-04   7.950e-04    -3.086    -3.100    -0.014     24.65
   CO3-2           5.736e-11   5.049e-11   -10.241   -10.297    -0.055     -3.86
H(0)          0.000e+00
   H2              0.000e+00   0.000e+00   -41.925   -41.925     0.000     28.58
O(0)          4.918e-09
   O2              2.459e-09   2.460e-09    -8.609    -8.609     0.000     30.31

------------------------------Saturation indices-------------------------------

	Phase               SI   log IAP   log K(298 K,  65 atm)

	CH4(g)         -127.59   -130.47   -2.88  CH4
	CO2(g)            1.63      0.14   -1.49  CO2	 Pressure  65.0 atm, phi 0.657.
	H2(g)           -38.79    -41.92   -3.13  H2
	H2O(g)           -1.49     -0.01    1.48  H2O	 Pressure   0.1 atm, phi 0.323.
	O2(g)            -5.68     -8.61   -2.93  O2


Reaction step 10.

WARNING: Maximum iterations exceeded, 100

WARNING: Numerical method failed with this set of convergence parameters.

WARNING: Trying smaller step size, pe step size 10, 5 ... 

Using solution 1.	pH 7 charge
Using gas phase 6.	
Using reaction 1.	

Reaction 1.	

	  1.038e+01 moles of the following reaction have been added:

	                 Relative
	Reactant            moles

	CO2                  1.00000

	                 Relative
	Element             moles
	C                    1.00000
	O                    2.00000

-----------------------------------Gas phase-----------------------------------

Total pressure: 65.13      atmospheres          (Peng-Robinson calculation)
    Gas volume:   1.00e+00 liters
  Molar volume:   1.11e-01 liters/mole
   P * Vm / RT:  0.29471  (Compressibility Factor Z) 

                                                        Moles in gas
                                            ----------------------------------
Component         log P           P    phi     Initial       Final       Delta

CO2(g)             1.81   6.502e+01  0.657   0.000e+00   9.017e+00   9.017e+00
H2O(g)            -0.96   1.088e-01  0.296   0.000e+00   1.509e-02   1.509e-02

-----------------------------Solution composition------------------------------

	Elements           Molality       Moles

	C                 1.368e+00   1.368e+00

----------------------------Description of solution----------------------------

                                       pH  =   3.099      Charge balance
                                       pe  =   1.487      Adjusted to redox equilibrium
       Specific Conductance (uS/cm, 25 oC) = 317
                          Density (g/cm3)  =   1.01781
                               Volume (L)  =   1.10722
                        Activity of water  =   0.977
                           Ionic strength  =   8.205e-04
                       Mass of water (kg)  =   9.997e-01
                 Total alkalinity (eq/kg)  =   1.217e-09
                       Total CO2 (mol/kg)  =   1.368e+00
                      Temperature (deg C)  =  25.00
                           Pressure (atm)  = 65.13
                  Electrical balance (eq)  =  -1.217e-09
 Percent error, 100*(Cat-|An|)/(Cat+|An|)  =  -0.00
                               Iterations  =  43
                                  Total H  = 1.109822e+02
                                  Total O  = 5.822635e+01

----------------------------Distribution of species----------------------------

                                               Log       Log       Log    mole V
   Species          Molality    Activity  Molality  Activity     Gamma   cm3/mol

   H+              8.205e-04   7.955e-04    -3.086    -3.099    -0.013      0.00
   OH-             1.360e-11   1.316e-11   -10.867   -10.881    -0.014     -3.87
   H2O             5.551e+01   9.767e-01     1.744    -0.010     0.000     18.02
C(-4)         6.545e-13
   CH4             6.545e-13   6.546e-13   -12.184   -12.184     0.000     32.22
C(4)          1.368e+00
   CO2             1.367e+00   1.367e+00     0.136     0.136     0.000     30.41
   HCO3-           8.205e-04   7.947e-04    -3.086    -3.100    -0.014     24.65
   CO3-2           5.736e-11   5.049e-11   -10.241   -10.297    -0.055     -3.86
H(0)          8.841e-13
   H2              4.421e-13   4.422e-13   -12.355   -12.354     0.000     28.58
O(0)          0.000e+00
   O2              0.000e+00   0.000e+00   -67.750   -67.750     0.000     30.31

------------------------------Saturation indices-------------------------------

	Phase               SI   log IAP   log K(298 K,  65 atm)

	CH4(g)           -9.30    -12.18   -2.88  CH4
	CO2(g)            1.63      0.14   -1.49  CO2	 Pressure  65.0 atm, phi 0.657.
	H2(g)            -9.22    -12.35   -3.13  H2
	H2O(g)           -1.49     -0.01    1.48  H2O	 Pressure   0.1 atm, phi 0.296.
	O2(g)           -64.82    -67.75   -2.93  O2


Reaction step 11.

Using solution 1.	pH 7 charge
Using gas phase 6.	
Using reaction 1.	

Reaction 1.	

	  1.142e+01 moles of the following reaction have been added:

	                 Relative
	Reactant            moles

	CO2                  1.00000

	                 Relative
	Element             moles
	C                    1.00000
	O                    2.00000

-----------------------------------Gas phase-----------------------------------

Total pressure: 65.11      atmospheres          (Peng-Robinson calculation)
    Gas volume:   1.00e+00 liters
  Molar volume:   9.92e-02 liters/mole
   P * Vm / RT:  0.26412  (Compressibility Factor Z) 

                                                        Moles in gas
                                            ----------------------------------
Component         log P           P    phi     Initial       Final       Delta

CO2(g)             1.81   6.499e+01  0.657   0.000e+00   1.006e+01   1.006e+01
H2O(g)            -0.92   1.190e-01  0.270   0.000e+00   1.842e-02   1.842e-02

-----------------------------Solution composition------------------------------

	Elements           Molality       Moles

	C                 1.366e+00   1.366e+00

----------------------------Description of solution----------------------------

                                       pH  =   3.100      Charge balance
                                       pe  =  16.025      Adjusted to redox equilibrium
       Specific Conductance (uS/cm, 25 oC) = 317
                          Density (g/cm3)  =   1.01779
                               Volume (L)  =   1.10703
                        Activity of water  =   0.977
                           Ionic strength  =   8.200e-04
                       Mass of water (kg)  =   9.997e-01
                 Total alkalinity (eq/kg)  =   1.217e-09
                       Total CO2 (mol/kg)  =   1.366e+00
                      Temperature (deg C)  =  25.00
                           Pressure (atm)  = 65.11
                  Electrical balance (eq)  =  -1.216e-09
 Percent error, 100*(Cat-|An|)/(Cat+|An|)  =  -0.00
                               Iterations  =  40
                                  Total H  = 1.109756e+02
                                  Total O  = 5.821953e+01

----------------------------Distribution of species----------------------------

                                               Log       Log       Log    mole V
   Species          Molality    Activity  Molality  Activity     Gamma   cm3/mol

   H+              8.200e-04   7.950e-04    -3.086    -3.100    -0.013      0.00
   OH-             1.360e-11   1.317e-11   -10.866   -10.880    -0.014     -3.87
   H2O             5.551e+01   9.768e-01     1.744    -0.010     0.000     18.02
C(-4)         0.000e+00
   CH4             0.000e+00   0.000e+00  -128.490  -128.490     0.000     32.22
C(4)          1.366e+00
   CO2             1.366e+00   1.366e+00     0.135     0.135     0.000     30.41
   HCO3-           8.200e-04   7.943e-04    -3.086    -3.100    -0.014     24.65
   CO3-2           5.736e-11   5.048e-11   -10.241   -10.297    -0.055     -3.86
H(0)          0.000e+00
   H2              0.000e+00   0.000e+00   -41.431   -41.431     0.000     28.58
O(0)          5.053e-10
   O2              2.527e-10   2.527e-10    -9.597    -9.597     0.000     30.31

------------------------------Saturation indices-------------------------------

	Phase               SI   log IAP   log K(298 K,  65 atm)

	CH4(g)         -125.61   -128.49   -2.88  CH4
	CO2(g)            1.63      0.14   -1.49  CO2	 Pressure  65.0 atm, phi 0.657.
	H2(g)           -38.30    -41.43   -3.13  H2
	H2O(g)           -1.49     -0.01    1.48  H2O	 Pressure   0.1 atm, phi 0.270.
	O2(g)            -6.67     -9.60   -2.93  O2


Reaction step 12.

Using solution 1.	pH 7 charge
Using gas phase 6.	
Using reaction 1.	

Reaction 1.	

	  1.246e+01 moles of the following reaction have been added:

	                 Relative
	Reactant            moles

	CO2                  1.00000

	                 Relative
	Element             moles
	C                    1.00000
	O                    2.00000

-----------------------------------Gas phase-----------------------------------

Total pressure: 65.09      atmospheres          (Peng-Robinson calculation)
    Gas volume:   1.00e+00 liters
  Molar volume:   8.99e-02 liters/mole
   P * Vm / RT:  0.23925  (Compressibility Factor Z) 

                                                        Moles in gas
                                            ----------------------------------
Component         log P           P    phi     Initial       Final       Delta

CO2(g)             1.81   6.496e+01  0.656   0.000e+00   1.110e+01   1.110e+01
H2O(g)            -0.89   1.301e-01  0.247   0.000e+00   2.222e-02   2.222e-02

-----------------------------Solution composition------------------------------

	Elements           Molality       Moles

	C                 1.364e+00   1.364e+00

----------------------------Description of solution----------------------------

                                       pH  =   3.100      Charge balance
                                       pe  =  16.048      Adjusted to redox equilibrium
       Specific Conductance (uS/cm, 25 oC) = 316
                          Density (g/cm3)  =   1.01776
                               Volume (L)  =   1.10678
                        Activity of water  =   0.977
                           Ionic strength  =   8.193e-04
                       Mass of water (kg)  =   9.996e-01
                 Total alkalinity (eq/kg)  =   1.217e-09
                       Total CO2 (mol/kg)  =   1.364e+00
                      Temperature (deg C)  =  25.00
                           Pressure (atm)  = 65.09
                  Electrical balance (eq)  =  -1.217e-09
 Percent error, 100*(Cat-|An|)/(Cat+|An|)  =  -0.00
                               Iterations  =  54
                                  Total H  = 1.109680e+02
                                  Total O  = 5.821112e+01

----------------------------Distribution of species----------------------------

                                               Log       Log       Log    mole V
   Species          Molality    Activity  Molality  Activity     Gamma   cm3/mol

   H+              8.193e-04   7.944e-04    -3.087    -3.100    -0.013      0.00
   OH-             1.361e-11   1.318e-11   -10.866   -10.880    -0.014     -3.87
   H2O             5.551e+01   9.768e-01     1.744    -0.010     0.000     18.02
C(-4)         0.000e+00
   CH4             0.000e+00   0.000e+00  -128.683  -128.683     0.000     32.22
C(4)          1.364e+00
   CO2             1.363e+00   1.364e+00     0.135     0.135     0.000     30.41
   HCO3-           8.193e-04   7.936e-04    -3.087    -3.100    -0.014     24.65
   CO3-2           5.735e-11   5.048e-11   -10.241   -10.297    -0.055     -3.86
H(0)          0.000e+00
   H2              0.000e+00   0.000e+00   -41.479   -41.479     0.000     28.58
O(0)          6.303e-10
   O2              3.152e-10   3.152e-10    -9.501    -9.501     0.000     30.31

------------------------------Saturation indices-------------------------------

	Phase               SI   log IAP   log K(298 K,  65 atm)

	CH4(g)         -125.80   -128.68   -2.88  CH4
	CO2(g)            1.63      0.13   -1.49  CO2	 Pressure  65.0 atm, phi 0.656.
	H2(g)           -38.35    -41.48   -3.13  H2
	H2O(g)           -1.49     -0.01    1.48  H2O	 Pressure   0.1 atm, phi 0.247.
	O2(g)            -6.57     -9.50   -2.93  O2


Reaction step 13.

WARNING: Maximum iterations exceeded, 100

WARNING: Numerical method failed with this set of convergence parameters.

WARNING: Trying smaller step size, pe step size 10, 5 ... 

WARNING: Maximum iterations exceeded, 200

WARNING: Numerical method failed with this set of convergence parameters.

WARNING: Trying reduced tolerance 1e-16 ...

Using solution 1.	pH 7 charge
Using gas phase 6.	
Using reaction 1.	

Reaction 1.	

	  1.350e+01 moles of the following reaction have been added:

	                 Relative
	Reactant            moles

	CO2                  1.00000

	                 Relative
	Element             moles
	C                    1.00000
	O                    2.00000

-----------------------------------Gas phase-----------------------------------

Total pressure: 65.07      atmospheres          (Peng-Robinson calculation)
    Gas volume:   1.00e+00 liters
  Molar volume:   8.22e-02 liters/mole
   P * Vm / RT:  0.21863  (Compressibility Factor Z) 

                                                        Moles in gas
                                            ----------------------------------
Component         log P           P    phi     Initial       Final       Delta

CO2(g)             1.81   6.493e+01  0.655   0.000e+00   1.214e+01   1.214e+01
H2O(g)            -0.85   1.420e-01  0.226   0.000e+00   2.656e-02   2.656e-02

-----------------------------Solution composition------------------------------

	Elements           Molality       Moles

	C                 1.362e+00   1.361e+00

----------------------------Description of solution----------------------------

                                       pH  =   3.100      Charge balance
                                       pe  =  16.124      Adjusted to redox equilibrium
       Specific Conductance (uS/cm, 25 oC) = 316
                          Density (g/cm3)  =   1.01773
                               Volume (L)  =   1.10651
                        Activity of water  =   0.977
                           Ionic strength  =   8.186e-04
                       Mass of water (kg)  =   9.995e-01
                 Total alkalinity (eq/kg)  =   1.217e-09
                       Total CO2 (mol/kg)  =   1.362e+00
                      Temperature (deg C)  =  25.00
                           Pressure (atm)  = 65.07
                  Electrical balance (eq)  =  -1.217e-09
 Percent error, 100*(Cat-|An|)/(Cat+|An|)  =  -0.00
                               Iterations  = 145
                                  Total H  = 1.109593e+02
                                  Total O  = 5.820188e+01

----------------------------Distribution of species----------------------------

                                               Log       Log       Log    mole V
   Species          Molality    Activity  Molality  Activity     Gamma   cm3/mol

   H+              8.186e-04   7.937e-04    -3.087    -3.100    -0.013      0.00
   OH-             1.363e-11   1.319e-11   -10.866   -10.880    -0.014     -3.87
   H2O             5.551e+01   9.768e-01     1.744    -0.010     0.000     18.02
C(-4)         0.000e+00
   CH4             0.000e+00   0.000e+00  -129.290  -129.290     0.000     32.22
C(4)          1.362e+00
   CO2             1.361e+00   1.361e+00     0.134     0.134     0.000     30.41
   HCO3-           8.186e-04   7.930e-04    -3.087    -3.101    -0.014     24.65
   CO3-2           5.735e-11   5.048e-11   -10.241   -10.297    -0.055     -3.86
H(0)          0.000e+00
   H2              0.000e+00   0.000e+00   -41.631   -41.630     0.000     28.58
O(0)          1.268e-09
   O2              6.339e-10   6.340e-10    -9.198    -9.198     0.000     30.31

------------------------------Saturation indices-------------------------------

	Phase               SI   log IAP   log K(298 K,  65 atm)

	CH4(g)         -126.41   -129.29   -2.88  CH4
	CO2(g)            1.63      0.13   -1.49  CO2	 Pressure  64.9 atm, phi 0.655.
	H2(g)           -38.50    -41.63   -3.13  H2
	H2O(g)           -1.49     -0.01    1.48  H2O	 Pressure   0.1 atm, phi 0.226.
	O2(g)            -6.27     -9.20   -2.93  O2


Reaction step 14.

WARNING: Maximum iterations exceeded, 100

WARNING: Numerical method failed with this set of convergence parameters.

WARNING: Trying smaller step size, pe step size 10, 5 ... 

Using solution 1.	pH 7 charge
Using gas phase 6.	
Using reaction 1.	

Reaction 1.	

	  1.454e+01 moles of the following reaction have been added:

	                 Relative
	Reactant            moles

	CO2                  1.00000

	                 Relative
	Element             moles
	C                    1.00000
	O                    2.00000

-----------------------------------Gas phase-----------------------------------

Total pressure: 65.05      atmospheres          (Peng-Robinson calculation)
    Gas volume:   1.00e+00 liters
  Molar volume:   7.57e-02 liters/mole
   P * Vm / RT:  0.20126  (Compressibility Factor Z) 

                                                        Moles in gas
                                            ----------------------------------
Component         log P           P    phi     Initial       Final       Delta

CO2(g)             1.81   6.490e+01  0.654   0.000e+00   1.318e+01   1.318e+01
H2O(g)            -0.81   1.549e-01  0.208   0.000e+00   3.146e-02   3.146e-02

-----------------------------Solution composition------------------------------

	Elements           Molality       Moles

	C                 1.360e+00   1.359e+00

----------------------------Description of solution----------------------------

                                       pH  =   3.101      Charge balance
                                       pe  =   1.004      Adjusted to redox equilibrium
       Specific Conductance (uS/cm, 25 oC) = 316
                          Density (g/cm3)  =   1.01770
                               Volume (L)  =   1.10626
                        Activity of water  =   0.977
                           Ionic strength  =   8.180e-04
                       Mass of water (kg)  =   9.994e-01
                 Total alkalinity (eq/kg)  =   1.217e-09
                       Total CO2 (mol/kg)  =   1.360e+00
                      Temperature (deg C)  =  25.00
                           Pressure (atm)  = 65.05
                  Electrical balance (eq)  =  -1.216e-09
 Percent error, 100*(Cat-|An|)/(Cat+|An|)  =  -0.00
                               Iterations  =  50
                                  Total H  = 1.109495e+02
                                  Total O  = 5.819266e+01

----------------------------Distribution of species----------------------------

                                               Log       Log       Log    mole V
   Species          Molality    Activity  Molality  Activity     Gamma   cm3/mol

   H+              8.180e-04   7.931e-04    -3.087    -3.101    -0.013      0.00
   OH-             1.364e-11   1.320e-11   -10.865   -10.879    -0.014     -3.87
   H2O             5.551e+01   9.769e-01     1.744    -0.010     0.000     18.02
C(-4)         4.612e-09
   CH4             4.612e-09   4.613e-09    -8.336    -8.336     0.000     32.22
C(4)          1.360e+00
   CO2             1.359e+00   1.359e+00     0.133     0.133     0.000     30.41
   HCO3-           8.180e-04   7.924e-04    -3.087    -3.101    -0.014     24.65
   CO3-2           5.734e-11   5.048e-11   -10.242   -10.297    -0.055     -3.86
H(0)          8.114e-12
   H2              4.057e-12   4.058e-12   -11.392   -11.392     0.000     28.58
O(0)          0.000e+00
   O2              0.000e+00   0.000e+00   -69.675   -69.675     0.000     30.31

------------------------------Saturation indices-------------------------------

	Phase               SI   log IAP   log K(298 K,  65 atm)

	CH4(g)           -5.46     -8.34   -2.88  CH4
	CO2(g)            1.63      0.13   -1.49  CO2	 Pressure  64.9 atm, phi 0.654.
	H2(g)            -8.26    -11.39   -3.13  H2
	H2O(g)           -1.49     -0.01    1.48  H2O	 Pressure   0.2 atm, phi 0.208.
	O2(g)           -66.75    -69.68   -2.93  O2


Reaction step 15.

WARNING: Maximum iterations exceeded, 100

WARNING: Numerical method failed with this set of convergence parameters.

WARNING: Trying smaller step size, pe step size 10, 5 ... 

WARNING: Maximum iterations exceeded, 200

WARNING: Numerical method failed with this set of convergence parameters.

WARNING: Trying reduced tolerance 1e-16 ...

WARNING: Maximum iterations exceeded, 200

WARNING: Numerical method failed with this set of convergence parameters.

WARNING: Trying increased tolerance 1e-14 ...

WARNING: Maximum iterations exceeded, 200

WARNING: Numerical method failed with this set of convergence parameters.

WARNING: Trying diagonal scaling ...

Using solution 1.	pH 7 charge
Using gas phase 6.	
Using reaction 1.	

Reaction 1.	

	  1.558e+01 moles of the following reaction have been added:

	                 Relative
	Reactant            moles

	CO2                  1.00000

	                 Relative
	Element             moles
	C                    1.00000
	O                    2.00000

-----------------------------------Gas phase-----------------------------------

Total pressure: 65.03      atmospheres          (Peng-Robinson calculation)
    Gas volume:   1.00e+00 liters
  Molar volume:   7.01e-02 liters/mole
   P * Vm / RT:  0.18644  (Compressibility Factor Z) 

                                                        Moles in gas
                                            ----------------------------------
Component         log P           P    phi     Initial       Final       Delta

CO2(g)             1.81   6.486e+01  0.654   0.000e+00   1.422e+01   1.422e+01
H2O(g)            -0.77   1.686e-01  0.191   0.000e+00   3.697e-02   3.697e-02

-----------------------------Solution composition------------------------------

	Elements           Molality       Moles

	C                 1.358e+00   1.358e+00

----------------------------Description of solution----------------------------

                                       pH  =   3.101      Charge balance
                                       pe  =  15.452      Adjusted to redox equilibrium
       Specific Conductance (uS/cm, 25 oC) = 316
                          Density (g/cm3)  =   1.01769
                               Volume (L)  =   1.10605
                        Activity of water  =   0.977
                           Ionic strength  =   8.176e-04
                       Mass of water (kg)  =   9.993e-01
                 Total alkalinity (eq/kg)  =   1.217e-09
                       Total CO2 (mol/kg)  =   1.358e+00
                      Temperature (deg C)  =  25.00
                           Pressure (atm)  = 65.03
                  Electrical balance (eq)  =  -1.216e-09
 Percent error, 100*(Cat-|An|)/(Cat+|An|)  =  -0.00
                               Iterations  = 104
                                  Total H  = 1.109385e+02
                                  Total O  = 5.818432e+01

----------------------------Distribution of species----------------------------

                                               Log       Log       Log    mole V
   Species          Molality    Activity  Molality  Activity     Gamma   cm3/mol

   H+              8.176e-04   7.928e-04    -3.087    -3.101    -0.013      0.00
   OH-             1.364e-11   1.321e-11   -10.865   -10.879    -0.014     -3.87
   H2O             5.551e+01   9.769e-01     1.744    -0.010     0.000     18.02
C(-4)         0.000e+00
   CH4             0.000e+00   0.000e+00  -123.921  -123.921     0.000     32.22
C(4)          1.358e+00
   CO2             1.358e+00   1.358e+00     0.133     0.133     0.000     30.41
   HCO3-           8.176e-04   7.920e-04    -3.087    -3.101    -0.014     24.65
   CO3-2           5.734e-11   5.048e-11   -10.242   -10.297    -0.055     -3.86
H(0)          0.000e+00
   H2              0.000e+00   0.000e+00   -40.288   -40.288     0.000     28.58
O(0)          2.618e-12
   O2              1.309e-12   1.309e-12   -11.883   -11.883     0.000     30.31

------------------------------Saturation indices-------------------------------

	Phase               SI   log IAP   log K(298 K,  65 atm)

	CH4(g)         -121.04   -123.92   -2.88  CH4
	CO2(g)            1.63      0.13   -1.49  CO2	 Pressure  64.9 atm, phi 0.654.
	H2(g)           -37.15    -40.29   -3.13  H2
	H2O(g)           -1.49     -0.01    1.48  H2O	 Pressure   0.2 atm, phi 0.191.
	O2(g)            -8.96    -11.88   -2.93  O2


Reaction step 16.

WARNING: Maximum iterations exceeded, 100

WARNING: Numerical method failed with this set of convergence parameters.

WARNING: Trying smaller step size, pe step size 10, 5 ... 

Using solution 1.	pH 7 charge
Using gas phase 6.	
Using reaction 1.	

Reaction 1.	

	  1.662e+01 moles of the following reaction have been added:

	                 Relative
	Reactant            moles

	CO2                  1.00000

	                 Relative
	Element             moles
	C                    1.00000
	O                    2.00000

-----------------------------------Gas phase-----------------------------------

Total pressure: 67.86      atmospheres          (Peng-Robinson calculation)
    Gas volume:   1.00e+00 liters
  Molar volume:   6.54e-02 liters/mole
   P * Vm / RT:  0.18134  (Compressibility Factor Z) 

                                                        Moles in gas
                                            ----------------------------------
Component         log P           P    phi     Initial       Final       Delta

CO2(g)             1.83   6.767e+01  0.632   0.000e+00   1.525e+01   1.525e+01
H2O(g)            -0.72   1.905e-01  0.169   0.000e+00   4.293e-02   4.293e-02

-----------------------------Solution composition------------------------------

	Elements           Molality       Moles

	C                 1.364e+00   1.363e+00

----------------------------Description of solution----------------------------

                                       pH  =   3.099      Charge balance
                                       pe  =  15.533      Adjusted to redox equilibrium
       Specific Conductance (uS/cm, 25 oC) = 317
                          Density (g/cm3)  =   1.01787
                               Volume (L)  =   1.10623
                        Activity of water  =   0.977
                           Ionic strength  =   8.204e-04
                       Mass of water (kg)  =   9.992e-01
                 Total alkalinity (eq/kg)  =   1.218e-09
                       Total CO2 (mol/kg)  =   1.364e+00
                      Temperature (deg C)  =  25.00
                           Pressure (atm)  = 67.86
                  Electrical balance (eq)  =  -1.217e-09
 Percent error, 100*(Cat-|An|)/(Cat+|An|)  =  -0.00
                               Iterations  =  92
                                  Total H  = 1.109266e+02
                                  Total O  = 5.818899e+01

----------------------------Distribution of species----------------------------

                                               Log       Log       Log    mole V
   Species          Molality    Activity  Molality  Activity     Gamma   cm3/mol

   H+              8.204e-04   7.954e-04    -3.086    -3.099    -0.013      0.00
   OH-             1.363e-11   1.320e-11   -10.865   -10.880    -0.014     -3.86
   H2O             5.551e+01   9.768e-01     1.744    -0.010     0.000     18.02
C(-4)         0.000e+00
   CH4             0.000e+00   0.000e+00  -124.556  -124.555     0.000     32.22
C(4)          1.364e+00
   CO2             1.363e+00   1.363e+00     0.135     0.135     0.000     30.41
   HCO3-           8.204e-04   7.946e-04    -3.086    -3.100    -0.014     24.65
   CO3-2           5.754e-11   5.064e-11   -10.240   -10.295    -0.055     -3.83
H(0)          0.000e+00
   H2              0.000e+00   0.000e+00   -40.448   -40.448     0.000     28.57
O(0)          5.436e-12
   O2              2.718e-12   2.718e-12   -11.566   -11.566     0.000     30.30

------------------------------Saturation indices-------------------------------

	Phase               SI   log IAP   log K(298 K,  68 atm)

	CH4(g)         -121.67   -124.56   -2.88  CH4
	CO2(g)            1.63      0.13   -1.50  CO2	 Pressure  67.7 atm, phi 0.632.
	H2(g)           -37.31    -40.45   -3.13  H2
	H2O(g)           -1.49     -0.01    1.48  H2O	 Pressure   0.2 atm, phi 0.169.
	O2(g)            -8.64    -11.57   -2.93  O2


Reaction step 17.

WARNING: Maximum iterations exceeded, 100

WARNING: Numerical method failed with this set of convergence parameters.

WARNING: Trying smaller step size, pe step size 10, 5 ... 

Using solution 1.	pH 7 charge
Using gas phase 6.	
Using reaction 1.	

Reaction 1.	

	  1.765e+01 moles of the following reaction have been added:

	                 Relative
	Reactant            moles

	CO2                  1.00000

	                 Relative
	Element             moles
	C                    1.00000
	O                    2.00000

-----------------------------------Gas phase-----------------------------------

Total pressure: 76.69      atmospheres          (Peng-Robinson calculation)
    Gas volume:   1.00e+00 liters
  Molar volume:   6.13e-02 liters/mole
   P * Vm / RT:  0.19202  (Compressibility Factor Z) 

                                                        Moles in gas
                                            ----------------------------------
Component         log P           P    phi     Initial       Final       Delta

CO2(g)             1.88   7.646e+01  0.572   0.000e+00   1.627e+01   1.627e+01
H2O(g)            -0.64   2.309e-01  0.140   0.000e+00   4.915e-02   4.915e-02

-----------------------------Solution composition------------------------------

	Elements           Molality       Moles

	C                 1.380e+00   1.379e+00

----------------------------Description of solution----------------------------

                                       pH  =   3.095      Charge balance
                                       pe  =  16.027      Adjusted to redox equilibrium
       Specific Conductance (uS/cm, 25 oC) = 320
                          Density (g/cm3)  =   1.01843
                               Volume (L)  =   1.10697
                        Activity of water  =   0.977
                           Ionic strength  =   8.288e-04
                       Mass of water (kg)  =   9.991e-01
                 Total alkalinity (eq/kg)  =   1.218e-09
                       Total CO2 (mol/kg)  =   1.380e+00
                      Temperature (deg C)  =  25.00
                           Pressure (atm)  = 76.69
                  Electrical balance (eq)  =  -1.216e-09
 Percent error, 100*(Cat-|An|)/(Cat+|An|)  =  -0.00
                               Iterations  =  51
                                  Total H  = 1.109141e+02
                                  Total O  = 5.821477e+01

----------------------------Distribution of species----------------------------

                                               Log       Log       Log    mole V
   Species          Molality    Activity  Molality  Activity     Gamma   cm3/mol

   H+              8.288e-04   8.035e-04    -3.082    -3.095    -0.013      0.00
   OH-             1.360e-11   1.316e-11   -10.867   -10.881    -0.014     -3.83
   H2O             5.551e+01   9.765e-01     1.744    -0.010     0.000     18.01
C(-4)         0.000e+00
   CH4             0.000e+00   0.000e+00  -128.477  -128.477     0.000     32.22
C(4)          1.380e+00
   CO2             1.379e+00   1.380e+00     0.140     0.140     0.000     30.43
   HCO3-           8.288e-04   8.027e-04    -3.082    -3.095    -0.014     24.66
   CO3-2           5.815e-11   5.116e-11   -10.235   -10.291    -0.056     -3.76
H(0)          0.000e+00
   H2              0.000e+00   0.000e+00   -41.433   -41.433     0.000     28.57
O(0)          4.971e-10
   O2              2.486e-10   2.486e-10    -9.605    -9.604     0.000     30.29

------------------------------Saturation indices-------------------------------

	Phase               SI   log IAP   log K(298 K,  77 atm)

	CH4(g)         -125.59   -128.48   -2.89  CH4
	CO2(g)            1.64      0.14   -1.50  CO2	 Pressure  76.5 atm, phi 0.572.
	H2(g)           -38.29    -41.43   -3.14  H2
	H2O(g)           -1.49     -0.01    1.48  H2O	 Pressure   0.2 atm, phi 0.140.
	O2(g)            -6.67     -9.60   -2.93  O2


Reaction step 18.

Using solution 1.	pH 7 charge
Using gas phase 6.	
Using reaction 1.	

Reaction 1.	

	  1.869e+01 moles of the following reaction have been added:

	                 Relative
	Reactant            moles

	CO2                  1.00000

	                 Relative
	Element             moles
	C                    1.00000
	O                    2.00000

-----------------------------------Gas phase-----------------------------------

Total pressure: 90.01      atmospheres          (Peng-Robinson calculation)
    Gas volume:   1.00e+00 liters
  Molar volume:   5.76e-02 liters/mole
   P * Vm / RT:  0.21206  (Compressibility Factor Z) 

                                                        Moles in gas
                                            ----------------------------------
Component         log P           P    phi     Initial       Final       Delta

CO2(g)             1.95   8.972e+01  0.503   0.000e+00   1.729e+01   1.729e+01
H2O(g)            -0.54   2.891e-01  0.113   0.000e+00   5.572e-02   5.572e-02

-----------------------------Solution composition------------------------------

	Elements           Molality       Moles

	C                 1.402e+00   1.400e+00

----------------------------Description of solution----------------------------

                                       pH  =   3.089      Charge balance
                                       pe  =  16.300      Adjusted to redox equilibrium
       Specific Conductance (uS/cm, 25 oC) = 325
                          Density (g/cm3)  =   1.01924
                               Volume (L)  =   1.10794
                        Activity of water  =   0.976
                           Ionic strength  =   8.408e-04
                       Mass of water (kg)  =   9.990e-01
                 Total alkalinity (eq/kg)  =   1.218e-09
                       Total CO2 (mol/kg)  =   1.402e+00
                      Temperature (deg C)  =  25.00
                           Pressure (atm)  = 90.01
                  Electrical balance (eq)  =  -1.217e-09
 Percent error, 100*(Cat-|An|)/(Cat+|An|)  =  -0.00
                               Iterations  =  55
                                  Total H  = 1.109010e+02
                                  Total O  = 5.825142e+01

----------------------------Distribution of species----------------------------

                                               Log       Log       Log    mole V
   Species          Molality    Activity  Molality  Activity     Gamma   cm3/mol

   H+              8.408e-04   8.149e-04    -3.075    -3.089    -0.014      0.00
   OH-             1.356e-11   1.312e-11   -10.868   -10.882    -0.014     -3.78
   H2O             5.551e+01   9.762e-01     1.744    -0.010     0.000     18.00
C(-4)         0.000e+00
   CH4             0.000e+00   0.000e+00  -130.610  -130.610     0.000     32.22
C(4)          1.402e+00
   CO2             1.401e+00   1.401e+00     0.146     0.147     0.000     30.46
   HCO3-           8.408e-04   8.141e-04    -3.075    -3.089    -0.014     24.68
   CO3-2           5.909e-11   5.194e-11   -10.229   -10.285    -0.056     -3.66
H(0)          0.000e+00
   H2              0.000e+00   0.000e+00   -41.972   -41.972     0.000     28.56
O(0)          5.796e-09
   O2              2.898e-09   2.898e-09    -8.538    -8.538     0.000     30.27

------------------------------Saturation indices-------------------------------

	Phase               SI   log IAP   log K(298 K,  90 atm)

	CH4(g)         -127.72   -130.61   -2.89  CH4
	CO2(g)            1.65      0.15   -1.51  CO2	 Pressure  89.7 atm, phi 0.503.
	H2(g)           -38.83    -41.97   -3.15  H2
	H2O(g)           -1.48     -0.01    1.47  H2O	 Pressure   0.3 atm, phi 0.113.
	O2(g)            -5.60     -8.54   -2.94  O2


Reaction step 19.

Using solution 1.	pH 7 charge
Using gas phase 6.	
Using reaction 1.	

Reaction 1.	

	  1.973e+01 moles of the following reaction have been added:

	                 Relative
	Reactant            moles

	CO2                  1.00000

	                 Relative
	Element             moles
	C                    1.00000
	O                    2.00000

-----------------------------------Gas phase-----------------------------------

Total pressure: 108.92      atmospheres          (Peng-Robinson calculation)
    Gas volume:   1.00e+00 liters
  Molar volume:   5.45e-02 liters/mole
   P * Vm / RT:  0.24240  (Compressibility Factor Z) 

                                                        Moles in gas
                                            ----------------------------------
Component         log P           P    phi     Initial       Final       Delta

CO2(g)             2.04   1.085e+02  0.435   0.000e+00   1.830e+01   1.830e+01
H2O(g)            -0.43   3.711e-01  0.089   0.000e+00   6.257e-02   6.257e-02

-----------------------------Solution composition------------------------------

	Elements           Molality       Moles

	C                 1.430e+00   1.428e+00

----------------------------Description of solution----------------------------

                                       pH  =   3.081      Charge balance
                                       pe  =   2.269      Adjusted to redox equilibrium
       Specific Conductance (uS/cm, 25 oC) = 331
                          Density (g/cm3)  =   1.02035
                               Volume (L)  =   1.10913
                        Activity of water  =   0.976
                           Ionic strength  =   8.569e-04
                       Mass of water (kg)  =   9.989e-01
                 Total alkalinity (eq/kg)  =   1.218e-09
                       Total CO2 (mol/kg)  =   1.430e+00
                      Temperature (deg C)  =  25.00
                           Pressure (atm)  = 108.92
                  Electrical balance (eq)  =  -1.217e-09
 Percent error, 100*(Cat-|An|)/(Cat+|An|)  =  -0.00
                               Iterations  =  60
                                  Total H  = 1.108873e+02
                                  Total O  = 5.829964e+01

----------------------------Distribution of species----------------------------

                                               Log       Log       Log    mole V
   Species          Molality    Activity  Molality  Activity     Gamma   cm3/mol

   H+              8.569e-04   8.303e-04    -3.067    -3.081    -0.014      0.00
   OH-             1.353e-11   1.309e-11   -10.869   -10.883    -0.014     -3.72
   H2O             5.551e+01   9.757e-01     1.744    -0.011     0.000     17.98
C(-4)         4.990e-19
   CH4             4.990e-19   4.991e-19   -18.302   -18.302     0.000     32.22
C(4)          1.430e+00
   CO2             1.429e+00   1.429e+00     0.155     0.155     0.000     30.51
   HCO3-           8.569e-04   8.295e-04    -3.067    -3.081    -0.014     24.70
   CO3-2           6.042e-11   5.305e-11   -10.219   -10.275    -0.056     -3.51
H(0)          2.495e-14
   H2              1.248e-14   1.248e-14   -13.904   -13.904     0.000     28.56
O(0)          0.000e+00
   O2              0.000e+00   0.000e+00   -64.692   -64.692     0.000     30.24

------------------------------Saturation indices-------------------------------

	Phase               SI   log IAP   log K(298 K, 109 atm)

	CH4(g)          -15.40    -18.30   -2.90  CH4
	CO2(g)            1.67      0.16   -1.52  CO2	 Pressure 108.5 atm, phi 0.435.
	H2(g)           -10.75    -13.90   -3.16  H2
	H2O(g)           -1.48     -0.01    1.47  H2O	 Pressure   0.4 atm, phi 0.089.
	O2(g)           -61.74    -64.69   -2.95  O2


Reaction step 20.

WARNING: Maximum iterations exceeded, 100

WARNING: Numerical method failed with this set of convergence parameters.

WARNING: Trying smaller step size, pe step size 10, 5 ... 

Using solution 1.	pH 7 charge
Using gas phase 6.	
Using reaction 1.	

Reaction 1.	

	  2.077e+01 moles of the following reaction have been added:

	                 Relative
	Reactant            moles

	CO2                  1.00000

	                 Relative
	Element             moles
	C                    1.00000
	O                    2.00000

-----------------------------------Gas phase-----------------------------------

Total pressure: 134.74      atmospheres          (Peng-Robinson calculation)
    Gas volume:   1.00e+00 liters
  Molar volume:   5.16e-02 liters/mole
   P * Vm / RT:  0.28421  (Compressibility Factor Z) 

                                                        Moles in gas
                                            ----------------------------------
Component         log P           P    phi     Initial       Final       Delta

CO2(g)             2.13   1.343e+02  0.372   0.000e+00   1.931e+01   1.931e+01
H2O(g)            -0.32   4.839e-01  0.070   0.000e+00   6.959e-02   6.959e-02

-----------------------------Solution composition------------------------------

	Elements           Molality       Moles

	C                 1.464e+00   1.462e+00

----------------------------Description of solution----------------------------

                                       pH  =   3.070      Charge balance
                                       pe  =  16.260      Adjusted to redox equilibrium
       Specific Conductance (uS/cm, 25 oC) = 339
                          Density (g/cm3)  =   1.02181
                               Volume (L)  =   1.11049
                        Activity of water  =   0.975
                           Ionic strength  =   8.780e-04
                       Mass of water (kg)  =   9.987e-01
                 Total alkalinity (eq/kg)  =   1.218e-09
                       Total CO2 (mol/kg)  =   1.464e+00
                      Temperature (deg C)  =  25.00
                           Pressure (atm)  = 134.74
                  Electrical balance (eq)  =  -1.217e-09
 Percent error, 100*(Cat-|An|)/(Cat+|An|)  =  -0.00
                               Iterations  =  47
                                  Total H  = 1.108732e+02
                                  Total O  = 5.836012e+01

----------------------------Distribution of species----------------------------

                                               Log       Log       Log    mole V
   Species          Molality    Activity  Molality  Activity     Gamma   cm3/mol

   H+              8.780e-04   8.506e-04    -3.056    -3.070    -0.014      0.00
[...]
H(0)          4.064e-31
   H2              2.032e-31   2.032e-31   -30.692   -30.692     0.000     28.38
O(0)          1.876e-12
   O2              9.380e-13   9.382e-13   -12.028   -12.028     0.000     32.55

------------------------------Saturation indices-------------------------------

	Phase               SI   log IAP   log K(373 K, 469 atm)

	CH4(g)          -89.67    -92.95   -3.28  CH4
	CO2(g)            2.33      0.19   -2.14  CO2	 Pressure 457.8 atm, phi 0.465.
	H2(g)           -27.40    -30.69   -3.29  H2
	H2O(g)            0.11     -0.01   -0.12  H2O	 Pressure  10.7 atm, phi 0.119.
	O2(g)            -8.70    -12.03   -3.33  O2


Reaction step 21.

WARNING: Maximum iterations exceeded, 100

WARNING: Numerical method failed with this set of convergence parameters.

WARNING: Trying smaller step size, pe step size 10, 5 ... 

Using solution 1.	pH 7 charge
Using gas phase 6.	
Using reaction 1.	

Reaction 1.	

	  2.100e+01 moles of the following reaction have been added:

	                 Relative
	Reactant            moles

	CO2                  1.00000

	                 Relative
	Element             moles
	C                    1.00000
	O                    2.00000

-----------------------------------Gas phase-----------------------------------

Total pressure: 531.88      atmospheres          (Peng-Robinson calculation)
    Gas volume:   1.00e+00 liters
  Molar volume:   5.03e-02 liters/mole
   P * Vm / RT:  0.87397  (Compressibility Factor Z) 

                                                        Moles in gas
                                            ----------------------------------
Component         log P           P    phi     Initial       Final       Delta

CO2(g)             2.72   5.196e+02  0.456   0.000e+00   1.942e+01   1.942e+01
H2O(g)             1.09   1.224e+01  0.108   0.000e+00   4.575e-01   4.575e-01

-----------------------------Solution composition------------------------------

	Elements           Molality       Moles

	C                 1.596e+00   1.583e+00

----------------------------Description of solution----------------------------

                                       pH  =   3.041      Charge balance
                                       pe  =  10.801      Adjusted to redox equilibrium
       Specific Conductance (uS/cm, 100 oC) = 1147
                          Density (g/cm3)  =   1.00643
                               Volume (L)  =   1.13169
                        Activity of water  =   0.973
                           Ionic strength  =   9.468e-04
                       Mass of water (kg)  =   9.917e-01
                 Total alkalinity (eq/kg)  =   5.738e-06
                       Total CO2 (mol/kg)  =   1.596e+00
                      Temperature (deg C)  = 100.00
                           Pressure (atm)  = 531.88
                  Electrical balance (eq)  =  -5.690e-06
 Percent error, 100*(Cat-|An|)/(Cat+|An|)  =  -0.30
                               Iterations  = 100
                                  Total H  = 1.100974e+02
                                  Total O  = 5.821395e+01

----------------------------Distribution of species----------------------------

                                               Log       Log       Log    mole V
   Species          Molality    Activity  Molality  Activity     Gamma   cm3/mol

   H+              9.439e-04   9.091e-04    -3.025    -3.041    -0.016      0.00
   OH-             1.013e-09   9.738e-10    -8.994    -9.012    -0.017     -7.86
   H2O             5.551e+01   9.729e-01     1.744    -0.012     0.000     18.35
C(-4)         0.000e+00
   CH4             0.000e+00   0.000e+00   -95.321   -95.321     0.000     32.22
C(4)          1.596e+00
   CO2             1.595e+00   1.595e+00     0.203     0.203     0.000     28.20
   HCO3-           9.496e-04   9.134e-04    -3.022    -3.039    -0.017     25.95
   CO3-2           1.372e-10   1.175e-10    -9.863    -9.930    -0.067     -3.69
H(0)          9.857e-32
   H2              4.929e-32   4.930e-32   -31.307   -31.307     0.000     28.35
O(0)          2.859e-11
   O2              1.429e-11   1.430e-11   -10.845   -10.845     0.000     32.40

------------------------------Saturation indices-------------------------------

	Phase               SI   log IAP   log K(373 K, 532 atm)

	CH4(g)          -92.01    -95.32   -3.31  CH4
	CO2(g)            2.37      0.20   -2.17  CO2	 Pressure 519.6 atm, phi 0.456.
	H2(g)           -27.99    -31.31   -3.31  H2
	H2O(g)            0.12     -0.01   -0.13  H2O	 Pressure  12.2 atm, phi 0.108.
	O2(g)            -7.49    -10.84   -3.36  O2


Reaction step 22.

Using solution 1.	pH 7 charge
Using gas phase 6.	
Using reaction 1.	

Reaction 1.	

	  2.200e+01 moles of the following reaction have been added:

	                 Relative
	Reactant            moles

	CO2                  1.00000

	                 Relative
	Element             moles
	C                    1.00000
	O                    2.00000

-----------------------------------Gas phase-----------------------------------

Total pressure: 607.13      atmospheres          (Peng-Robinson calculation)
    Gas volume:   1.00e+00 liters
  Molar volume:   4.80e-02 liters/mole
   P * Vm / RT:  0.95145  (Compressibility Factor Z) 

                                                        Moles in gas
                                            ----------------------------------
Component         log P           P    phi     Initial       Final       Delta

CO2(g)             2.77   5.932e+02  0.452   0.000e+00   2.036e+01   2.036e+01
H2O(g)             1.14   1.396e+01  0.099   0.000e+00   4.791e-01   4.791e-01

-----------------------------Solution composition------------------------------

	Elements           Molality       Moles

	C                 1.654e+00   1.640e+00

----------------------------Description of solution----------------------------

                                       pH  =   3.020      Charge balance
                                       pe  =  10.691      Adjusted to redox equilibrium
       Specific Conductance (uS/cm, 100 oC) = 1205
                          Density (g/cm3)  =   1.00895
                               Volume (L)  =   1.13378
                        Activity of water  =   0.972
                           Ionic strength  =   9.952e-04
                       Mass of water (kg)  =   9.914e-01
                 Total alkalinity (eq/kg)  =   5.740e-06
                       Total CO2 (mol/kg)  =   1.654e+00
                      Temperature (deg C)  = 100.00
                           Pressure (atm)  = 607.13
                  Electrical balance (eq)  =  -5.690e-06
 Percent error, 100*(Cat-|An|)/(Cat+|An|)  =  -0.29
                               Iterations  =  95
                                  Total H  = 1.100542e+02
                                  Total O  = 5.830724e+01

----------------------------Distribution of species----------------------------

                                               Log       Log       Log    mole V
   Species          Molality    Activity  Molality  Activity     Gamma   cm3/mol

   H+              9.924e-04   9.552e-04    -3.003    -3.020    -0.017      0.00
   OH-             1.031e-09   9.906e-10    -8.987    -9.004    -0.018     -8.08
   H2O             5.551e+01   9.719e-01     1.744    -0.012     0.000     18.29
C(-4)         0.000e+00
   CH4             0.000e+00   0.000e+00   -94.287   -94.287     0.000     32.22
C(4)          1.654e+00
   CO2             1.653e+00   1.654e+00     0.218     0.218     0.000     29.06
   HCO3-           9.981e-04   9.594e-04    -3.001    -3.018    -0.017     26.11
   CO3-2           1.467e-10   1.252e-10    -9.834    -9.902    -0.069     -3.07
H(0)          1.686e-31
   H2              8.431e-32   8.433e-32   -31.074   -31.074     0.000     28.33
O(0)          8.589e-12
   O2              4.295e-12   4.296e-12   -11.367   -11.367     0.000     32.23

------------------------------Saturation indices-------------------------------

	Phase               SI   log IAP   log K(373 K, 607 atm)

	CH4(g)          -90.95    -94.29   -3.34  CH4
	CO2(g)            2.43      0.22   -2.21  CO2	 Pressure 593.2 atm, phi 0.452.
	H2(g)           -27.73    -31.07   -3.34  H2
	H2O(g)            0.14     -0.01   -0.15  H2O	 Pressure  14.0 atm, phi 0.099.
	O2(g)            -7.98    -11.37   -3.39  O2


Reaction step 23.

Using solution 1.	pH 7 charge
Using gas phase 6.	
Using reaction 1.	

Reaction 1.	

	  2.300e+01 moles of the following reaction have been added:

	                 Relative
	Reactant            moles

	CO2                  1.00000

	                 Relative
	Element             moles
	C                    1.00000
	O                    2.00000

-----------------------------------Gas phase-----------------------------------

Total pressure: 697.15      atmospheres          (Peng-Robinson calculation)
    Gas volume:   1.00e+00 liters
  Molar volume:   4.59e-02 liters/mole
   P * Vm / RT:  1.04413  (Compressibility Factor Z) 

                                                        Moles in gas
                                            ----------------------------------
Component         log P           P    phi     Initial       Final       Delta

CO2(g)             2.83   6.812e+02  0.452   0.000e+00   2.131e+01   2.131e+01
H2O(g)             1.20   1.592e+01  0.091   0.000e+00   4.980e-01   4.980e-01

-----------------------------Solution composition------------------------------

	Elements           Molality       Moles

	C                 1.708e+00   1.693e+00

----------------------------Description of solution----------------------------

                                       pH  =   2.996      Charge balance
                                       pe  =  11.311      Adjusted to redox equilibrium
       Specific Conductance (uS/cm, 100 oC) = 1274
                          Density (g/cm3)  =   1.01163
                               Volume (L)  =   1.13530
                        Activity of water  =   0.971
                           Ionic strength  =   1.052e-03
                       Mass of water (kg)  =   9.910e-01
                 Total alkalinity (eq/kg)  =   5.742e-06
                       Total CO2 (mol/kg)  =   1.708e+00
                      Temperature (deg C)  = 100.00
                           Pressure (atm)  = 697.15
                  Electrical balance (eq)  =  -5.690e-06
 Percent error, 100*(Cat-|An|)/(Cat+|An|)  =  -0.27
                               Iterations  =  49
                                  Total H  = 1.100165e+02
                                  Total O  = 5.839406e+01

----------------------------Distribution of species----------------------------

                                               Log       Log       Log    mole V
   Species          Molality    Activity  Molality  Activity     Gamma   cm3/mol

   H+              1.050e-03   1.009e-03    -2.979    -2.996    -0.017      0.00
   OH-             1.059e-09   1.016e-09    -8.975    -8.993    -0.018     -8.33
   H2O             5.551e+01   9.709e-01     1.744    -0.013     0.000     18.22
C(-4)         0.000e+00
   CH4             0.000e+00   0.000e+00   -99.082   -99.082     0.000     32.22
C(4)          1.708e+00
   CO2             1.707e+00   1.708e+00     0.232     0.232     0.000     30.05
   HCO3-           1.055e-03   1.014e-03    -2.977    -2.994    -0.018     26.30
   CO3-2           1.584e-10   1.347e-10    -9.800    -9.871    -0.070     -2.36
H(0)          9.965e-33
   H2              4.982e-33   4.984e-33   -32.303   -32.302     0.000     28.30
O(0)          2.111e-09
   O2              1.055e-09   1.056e-09    -8.977    -8.977     0.000     32.03

------------------------------Saturation indices-------------------------------

	Phase               SI   log IAP   log K(373 K, 697 atm)

	CH4(g)          -95.70    -99.08   -3.38  CH4
	CO2(g)            2.49      0.23   -2.26  CO2	 Pressure 681.2 atm, phi 0.452.
	H2(g)           -28.92    -32.30   -3.38  H2
	H2O(g)            0.16     -0.01   -0.17  H2O	 Pressure  15.9 atm, phi 0.091.
	O2(g)            -5.55     -8.98   -3.43  O2


Reaction step 24.

Using solution 1.	pH 7 charge
Using gas phase 6.	
Using reaction 1.	

Reaction 1.	

	  2.400e+01 moles of the following reaction have been added:

	                 Relative
	Reactant            moles

	CO2                  1.00000

	                 Relative
	Element             moles
	C                    1.00000
	O                    2.00000

-----------------------------------Gas phase-----------------------------------

Total pressure: 805.91      atmospheres          (Peng-Robinson calculation)
    Gas volume:   1.00e+00 liters
  Molar volume:   4.39e-02 liters/mole
   P * Vm / RT:  1.15550  (Compressibility Factor Z) 

                                                        Moles in gas
                                            ----------------------------------
Component         log P           P    phi     Initial       Final       Delta

CO2(g)             2.90   7.877e+02  0.460   0.000e+00   2.226e+01   2.226e+01
H2O(g)             1.26   1.817e+01  0.085   0.000e+00   5.134e-01   5.134e-01

-----------------------------Solution composition------------------------------

	Elements           Molality       Moles

	C                 1.752e+00   1.736e+00

----------------------------Description of solution----------------------------

                                       pH  =   2.969      Charge balance
                                       pe  =  11.371      Adjusted to redox equilibrium
       Specific Conductance (uS/cm, 100 oC) = 1357
                          Density (g/cm3)  =   1.01447
                               Volume (L)  =   1.13580
                        Activity of water  =   0.970
                           Ionic strength  =   1.121e-03
                       Mass of water (kg)  =   9.907e-01
                 Total alkalinity (eq/kg)  =   5.743e-06
                       Total CO2 (mol/kg)  =   1.752e+00
                      Temperature (deg C)  = 100.00
                           Pressure (atm)  = 805.91
                  Electrical balance (eq)  =  -5.690e-06
 Percent error, 100*(Cat-|An|)/(Cat+|An|)  =  -0.26
                               Iterations  =  57
                                  Total H  = 1.099856e+02
                                  Total O  = 5.846489e+01

----------------------------Distribution of species----------------------------

                                               Log       Log       Log    mole V
   Species          Molality    Activity  Molality  Activity     Gamma   cm3/mol

   H+              1.118e-03   1.075e-03    -2.951    -2.969    -0.017      0.00
   OH-             1.099e-09   1.054e-09    -8.959    -8.977    -0.018     -8.61
   H2O             5.551e+01   9.702e-01     1.744    -0.013     0.000     18.15
C(-4)         0.000e+00
   CH4             0.000e+00   0.000e+00   -99.375   -99.375     0.000     32.22
C(4)          1.752e+00
   CO2             1.751e+00   1.752e+00     0.243     0.243     0.000     31.16
   HCO3-           1.124e-03   1.078e-03    -2.949    -2.967    -0.018     26.51
   CO3-2           1.732e-10   1.467e-10    -9.762    -9.833    -0.072     -1.55
H(0)          7.769e-33
   H2              3.884e-33   3.885e-33   -32.411   -32.411     0.000     28.27
O(0)          2.890e-09
   O2              1.445e-09   1.446e-09    -8.840    -8.840     0.000     31.81

------------------------------Saturation indices-------------------------------

	Phase               SI   log IAP   log K(373 K, 806 atm)

	CH4(g)          -95.94    -99.37   -3.43  CH4
	CO2(g)            2.56      0.24   -2.32  CO2	 Pressure 787.7 atm, phi 0.460.
	H2(g)           -28.99    -32.41   -3.42  H2
	H2O(g)            0.19     -0.01   -0.20  H2O	 Pressure  18.2 atm, phi 0.085.
	O2(g)            -5.36     -8.84   -3.48  O2


Reaction step 25.

Using solution 1.	pH 7 charge
Using gas phase 6.	
Using reaction 1.	

Reaction 1.	

	  2.500e+01 moles of the following reaction have been added:

	                 Relative
	Reactant            moles

	CO2                  1.00000

	                 Relative
	Element             moles
	C                    1.00000
	O                    2.00000

-----------------------------------Gas phase-----------------------------------

Total pressure: 939.21      atmospheres          (Peng-Robinson calculation)
    Gas volume:   1.00e+00 liters
  Molar volume:   4.21e-02 liters/mole
   P * Vm / RT:  1.29076  (Compressibility Factor Z) 

                                                        Moles in gas
                                            ----------------------------------
Component         log P           P    phi     Initial       Final       Delta

CO2(g)             2.96   9.185e+02  0.476   0.000e+00   2.324e+01   2.324e+01
H2O(g)             1.32   2.073e+01  0.080   0.000e+00   5.245e-01   5.245e-01

-----------------------------Solution composition------------------------------

	Elements           Molality       Moles

	C                 1.778e+00   1.762e+00

----------------------------Description of solution----------------------------

                                       pH  =   2.938      Charge balance
                                       pe  =  11.148      Adjusted to redox equilibrium
       Specific Conductance (uS/cm, 100 oC) = 1458
                          Density (g/cm3)  =   1.01752
                               Volume (L)  =   1.13453
                        Activity of water  =   0.970
                           Ionic strength  =   1.205e-03
                       Mass of water (kg)  =   9.905e-01
                 Total alkalinity (eq/kg)  =   5.745e-06
                       Total CO2 (mol/kg)  =   1.778e+00
                      Temperature (deg C)  = 100.00
                           Pressure (atm)  = 939.21
                  Electrical balance (eq)  =  -5.690e-06
 Percent error, 100*(Cat-|An|)/(Cat+|An|)  =  -0.24
                               Iterations  =  57
                                  Total H  = 1.099633e+02
                                  Total O  = 5.850480e+01

----------------------------Distribution of species----------------------------

                                               Log       Log       Log    mole V
   Species          Molality    Activity  Molality  Activity     Gamma   cm3/mol

   H+              1.202e-03   1.154e-03    -2.920    -2.938    -0.018      0.00
   OH-             1.159e-09   1.109e-09    -8.936    -8.955    -0.019     -8.93
   H2O             5.551e+01   9.697e-01     1.744    -0.013     0.000     18.05
C(-4)         0.000e+00
   CH4             0.000e+00   0.000e+00   -97.394   -97.394     0.000     32.22
C(4)          1.778e+00
   CO2             1.777e+00   1.778e+00     0.250     0.250     0.000     32.44
   HCO3-           1.208e-03   1.158e-03    -2.918    -2.936    -0.018     26.75
   CO3-2           1.923e-10   1.623e-10    -9.716    -9.790    -0.074     -0.61
H(0)          2.207e-32
   H2              1.103e-32   1.104e-32   -31.957   -31.957     0.000     28.23
O(0)          2.865e-10
   O2              1.433e-10   1.433e-10    -9.844    -9.844     0.000     31.55

------------------------------Saturation indices-------------------------------

	Phase               SI   log IAP   log K(373 K, 939 atm)

	CH4(g)          -93.90    -97.39   -3.49  CH4
	CO2(g)            2.64      0.25   -2.39  CO2	 Pressure 918.5 atm, phi 0.476.
	H2(g)           -28.48    -31.96   -3.48  H2
	H2O(g)            0.22     -0.01   -0.24  H2O	 Pressure  20.7 atm, phi 0.080.
	O2(g)            -6.31     -9.84   -3.53  O2


------------------
End of simulation.
------------------

------------------------------------
Reading input data for simulation 7.
------------------------------------

------------------------------
End of Run after 0.56 Seconds.
------------------------------

