WARNING: Database file from DATABASE keyword is used; command line argument ignored.
   Input file: CO2_Na2SO4
  Output file: CO2_Na2SO4.out
Database file: ../database/pitzer.dat

------------------
Reading data base.
------------------

	SOLUTION_MASTER_SPECIES
	SOLUTION_SPECIES
	PHASES
	PITZER
	EXCHANGE_MASTER_SPECIES
	EXCHANGE_SPECIES
	SURFACE_MASTER_SPECIES
	SURFACE_SPECIES
	END
------------------------------------
Reading input data for simulation 1.
------------------------------------

	DATABASE ../database/pitzer.dat
	SOLUTION 1
	 pH 7 charge
	 Na 2e3
	 S(6) 1e3
	 temp 25
	EQUILIBRIUM_PHASES
	 CO2(g) 1.9
	GAS_PHASE 1
	     fixed_volume
	     CO2(g) 0
		 H2O(g) 0
	REACTION_TEMPERATURE
	 25 160 in 10
	USER_GRAPH
	 -plot_csv_file CO2_Na2SO4.dat
	 -axis_titles "Temp / oC" "CO2 solubility at 80 bar / (mol/kgw)"
	 -connect_simulations false
	 10 graph_x tc
	 20 graph_y tot("C")
	END
-------------------------------------------
Beginning of initial solution calculations.
-------------------------------------------

Initial solution 1.	

-----------------------------Solution composition------------------------------

	Elements           Molality       Moles

	Na                2.000e+00   2.000e+00
	S(6)              1.000e+00   1.000e+00

----------------------------Description of solution----------------------------

                                       pH  =   7.384      Charge balance
                                       pe  =   4.000    
       Specific Conductance (uS/cm, 25 oC) = 35419
                          Density (g/cm3)  =   1.11195
                               Volume (L)  =   1.08462
                        Activity of water  =   0.966
                           Ionic strength  =   3.000e+00
                       Mass of water (kg)  =   1.000e+00
                 Total alkalinity (eq/kg)  =   3.629e-15
                    Total carbon (mol/kg)  =   0.000e+00
                       Total CO2 (mol/kg)  =   0.000e+00
                      Temperature (deg C)  =  25.00
                  Electrical balance (eq)  =  -8.343e-10
 Percent error, 100*(Cat-|An|)/(Cat+|An|)  =  -0.00
                               Iterations  =  11
                         Gamma iterations  =   4
                      Osmotic coefficient  =   0.64082
                         Density of water  =   0.99704
                                  Total H  = 1.110124e+02
                                  Total O  = 5.950622e+01

----------------------------Distribution of species----------------------------

                                                    MacInnes  MacInnes
                                MacInnes       Log       Log       Log    mole V
   Species          Molality    Activity  Molality  Activity     Gamma   cm3/mol

   OH-             4.344e-07   2.366e-07    -6.362    -6.626    -0.264      0.77
   H+              1.018e-07   4.132e-08    -6.992    -7.384    -0.391      0.00
   H2O             5.551e+01   9.660e-01     1.744    -0.015     0.000     18.07
Na            2.000e+00
   Na+             2.000e+00   8.974e-01     0.301    -0.047    -0.348      0.46
S(6)          1.000e+00
   SO4-2           1.000e+00   4.278e-02    -0.000    -1.369    -1.369     23.17
   HSO4-           3.327e-07   1.684e-07    -6.478    -6.774    -0.296     41.62

------------------------------Saturation indices-------------------------------

	Phase               SI   log IAP   log K(298 K,   1 atm)

	H2O(g)           -1.52     -0.02    1.50  H2O
	Mirabilite       -0.40     -1.61   -1.21  Na2SO4:10H2O
	Thenardite       -1.11     -1.46   -0.35  Na2SO4


-----------------------------------------
Beginning of batch-reaction calculations.
-----------------------------------------

Reaction step 1.

WARNING: Numerical method failed, switching to numerical derivatives.
Using solution 1.	
Using pure phase assemblage 1.	
Using gas phase 1.	
Using temperature 1.	

-----------------------------------Gas phase-----------------------------------

Total pressure: 65.13      atmospheres          (Peng-Robinson calculation)
    Gas volume:   1.00e+00 liters
  Molar volume:   1.09e-01 liters/mole
   P * Vm / RT:  0.28983  (Compressibility Factor Z) 

                                                        Moles in gas
                                            ----------------------------------
Component         log P           P    phi     Initial       Final       Delta

CO2(g)             1.81   6.502e+01  0.657   0.000e+00   9.170e+00   9.170e+00
H2O(g)            -0.97   1.067e-01  0.292   0.000e+00   1.504e-02   1.504e-02

-------------------------------Phase assemblage--------------------------------

                                                      Moles in assemblage
Phase               SI  log IAP  log K(T, P)   Initial       Final       Delta

CO2(g)            1.63     0.14     -1.49    1.000e+01           0  -1.000e+01

-----------------------------Solution composition------------------------------

	Elements           Molality       Moles

	C                 8.305e-01   8.303e-01
	Na                2.001e+00   2.000e+00
	S                 1.000e+00   1.000e+00

----------------------------Description of solution----------------------------

                                       pH  =   3.434      Charge balance
                                       pe  =   4.000      Adjusted to redox equilibrium
       Specific Conductance (uS/cm, 25 oC) = 42853
                          Density (g/cm3)  =   1.12370
                               Volume (L)  =   1.14176
                        Activity of water  =   0.945
                           Ionic strength  =   2.999e+00
                       Mass of water (kg)  =   9.997e-01
                 Total alkalinity (eq/kg)  =   1.363e-14
                       Total CO2 (mol/kg)  =   8.305e-01
                      Temperature (deg C)  =  25.00
                           Pressure (atm)  = 65.13
                  Electrical balance (eq)  =  -8.344e-10
 Percent error, 100*(Cat-|An|)/(Cat+|An|)  =  -0.00
                               Iterations  = 132
                         Gamma iterations  =   4
                      Osmotic coefficient  =   0.82123
                         Density of water  =   0.99704
                                  Total H  = 1.109824e+02
                                  Total O  = 6.115169e+01

----------------------------Distribution of species----------------------------

                                                    MacInnes  MacInnes
                                MacInnes       Log       Log       Log    mole V
   Species          Molality    Activity  Molality  Activity     Gamma   cm3/mol

   H+              9.122e-04   3.685e-04    -3.040    -3.434    -0.394      0.00
   OH-             4.942e-11   2.714e-11   -10.306   -10.566    -0.260      0.97
   H2O             5.551e+01   9.449e-01     1.744    -0.025     0.000     18.02
C(4)          8.305e-01
   CO2             8.264e-01   1.367e+00    -0.083     0.136     0.219     29.36
   HCO3-           4.175e-03   1.664e-03    -2.379    -2.779    -0.399     31.69
   CO3-2           3.913e-09   2.219e-10    -8.408    -9.654    -1.246      4.77
Na            2.001e+00
   Na+             2.001e+00   1.014e+00     0.301     0.006    -0.295      0.70
S(6)          1.000e+00
   SO4-2           9.971e-01   4.955e-02    -0.001    -1.305    -1.304     23.02
   HSO4-           3.263e-03   1.657e-03    -2.486    -2.781    -0.294     41.45

------------------------------Saturation indices-------------------------------

	Phase               SI   log IAP   log K(298 K,  65 atm)

	Burkeite        -11.57    -12.23   -0.66  Na6CO3(SO4)2
	CO2(g)            1.63      0.14   -1.49  CO2	 Pressure  65.0 atm, phi 0.657.
	H2O(g)           -1.51     -0.02    1.48  H2O	 Pressure   0.1 atm, phi 0.292.
	Mirabilite       -0.34     -1.54   -1.20  Na2SO4:10H2O
	Nahcolite        -2.33    -13.08  -10.75  NaHCO3
	Natron           -8.85     -9.89   -1.04  Na2CO3:10H2O
	Thenardite       -0.98     -1.29   -0.32  Na2SO4
	Trona           -11.46    -22.77  -11.32  Na3H(CO3)2:2H2O


Reaction step 2.

Using solution 1.	
Using pure phase assemblage 1.	
Using gas phase 1.	
Using temperature 1.	

-----------------------------------Gas phase-----------------------------------

Total pressure: 79.86      atmospheres          (Peng-Robinson calculation)
    Gas volume:   1.00e+00 liters
  Molar volume:   1.48e-01 liters/mole
   P * Vm / RT:  0.45860  (Compressibility Factor Z) 

                                                        Moles in gas
                                            ----------------------------------
Component         log P           P    phi     Initial       Final       Delta

CO2(g)             1.90   7.966e+01  0.649   0.000e+00   6.760e+00   6.760e+00
H2O(g)            -0.70   2.000e-01  0.364   0.000e+00   1.697e-02   1.697e-02

-------------------------------Phase assemblage--------------------------------

                                                      Moles in assemblage
Phase               SI  log IAP  log K(T, P)   Initial       Final       Delta

CO2(g)            1.71     0.06     -1.65    1.000e+01   2.537e+00  -7.463e+00

-----------------------------Solution composition------------------------------

	Elements           Molality       Moles

	C                 7.035e-01   7.033e-01
	Na                2.001e+00   2.000e+00
	S                 1.000e+00   1.000e+00

----------------------------Description of solution----------------------------

                                       pH  =   3.548      Charge balance
                                       pe  =   4.000      Adjusted to redox equilibrium
       Specific Conductance (uS/cm, 40 oC) = 60099
                          Density (g/cm3)  =   1.11823
                               Volume (L)  =   1.13675
                        Activity of water  =   0.947
                           Ionic strength  =   2.998e+00
                       Mass of water (kg)  =   9.996e-01
                 Total alkalinity (eq/kg)  =   5.994e-14
                       Total CO2 (mol/kg)  =   7.035e-01
                      Temperature (deg C)  =  40.00
                           Pressure (atm)  = 79.86
                  Electrical balance (eq)  =  -8.346e-10
 Percent error, 100*(Cat-|An|)/(Cat+|An|)  =  -0.00
                               Iterations  =  42
                         Gamma iterations  =   4
                      Osmotic coefficient  =   0.82098
                         Density of water  =   0.99564
                                  Total H  = 1.109785e+02
                                  Total O  = 6.089578e+01

----------------------------Distribution of species----------------------------

                                                    MacInnes  MacInnes
                                MacInnes       Log       Log       Log    mole V
   Species          Molality    Activity  Molality  Activity     Gamma   cm3/mol

   H+              7.429e-04   2.829e-04    -3.129    -3.548    -0.419      0.00
   OH-             1.836e-10   1.031e-10    -9.736    -9.987    -0.251      1.31
   H2O             5.551e+01   9.467e-01     1.744    -0.024     0.000     18.09
C(4)          7.035e-01
   CO2             6.986e-01   1.156e+00    -0.156     0.063     0.219     26.84
   HCO3-           4.912e-03   2.079e-03    -2.309    -2.682    -0.373     31.79
   CO3-2           7.763e-09   4.671e-10    -8.110    -9.331    -1.221      5.31
Na            2.001e+00
   Na+             2.001e+00   1.019e+00     0.301     0.008    -0.293      1.05
S(6)          1.000e+00
   SO4-2           9.962e-01   5.380e-02    -0.002    -1.269    -1.268     23.63
   HSO4-           4.169e-03   2.100e-03    -2.380    -2.678    -0.298     42.24

------------------------------Saturation indices-------------------------------

	Phase               SI   log IAP   log K(313 K,  80 atm)

	Burkeite        -11.17    -11.82   -0.65  Na6CO3(SO4)2
	CO2(g)            1.71      0.06   -1.65  CO2	 Pressure  79.7 atm, phi 0.649.
	H2O(g)           -1.14     -0.02    1.11  H2O	 Pressure   0.2 atm, phi 0.364.
	Mirabilite       -0.89     -1.49   -0.60  Na2SO4:10H2O
	Nahcolite        -2.12    -12.87  -10.75  NaHCO3
	Natron           -8.48     -9.55   -1.08  Na2CO3:10H2O
	Thenardite       -0.94     -1.25   -0.31  Na2SO4
	Trona           -10.92    -22.23  -11.31  Na3H(CO3)2:2H2O


Reaction step 3.

Using solution 1.	
Using pure phase assemblage 1.	
Using gas phase 1.	
Using temperature 1.	

-----------------------------------Gas phase-----------------------------------

Total pressure: 79.97      atmospheres          (Peng-Robinson calculation)
    Gas volume:   1.00e+00 liters
  Molar volume:   2.05e-01 liters/mole
   P * Vm / RT:  0.60831  (Compressibility Factor Z) 

                                                        Moles in gas
                                            ----------------------------------
Component         log P           P    phi     Initial       Final       Delta

CO2(g)             1.90   7.964e+01  0.702   0.000e+00   4.862e+00   4.862e+00
H2O(g)            -0.48   3.304e-01  0.468   0.000e+00   2.017e-02   2.017e-02

-------------------------------Phase assemblage--------------------------------

                                                      Moles in assemblage
Phase               SI  log IAP  log K(T, P)   Initial       Final       Delta

CO2(g)            1.75    -0.02     -1.77    1.000e+01   4.556e+00  -5.444e+00

-----------------------------Solution composition------------------------------

	Elements           Molality       Moles

	C                 5.822e-01   5.819e-01
	Na                2.001e+00   2.000e+00
	S                 1.000e+00   1.000e+00

----------------------------Description of solution----------------------------

                                       pH  =   3.701      Charge balance
                                       pe  =   4.000      Adjusted to redox equilibrium
       Specific Conductance (uS/cm, 55 oC) = 78133
                          Density (g/cm3)  =   1.11032
                               Volume (L)  =   1.13464
                        Activity of water  =   0.949
                           Ionic strength  =   2.997e+00
                       Mass of water (kg)  =   9.995e-01
                 Total alkalinity (eq/kg)  =   5.992e-14
                       Total CO2 (mol/kg)  =   5.822e-01
                      Temperature (deg C)  =  55.00
                           Pressure (atm)  = 79.97
                  Electrical balance (eq)  =  -8.346e-10
 Percent error, 100*(Cat-|An|)/(Cat+|An|)  =  -0.00
                               Iterations  =  42
                         Gamma iterations  =   4
                      Osmotic coefficient  =   0.81845
                         Density of water  =   0.98911
                                  Total H  = 1.109721e+02
                                  Total O  = 6.064982e+01

----------------------------Distribution of species----------------------------

                                                    MacInnes  MacInnes
                                MacInnes       Log       Log       Log    mole V
   Species          Molality    Activity  Molality  Activity     Gamma   cm3/mol

   H+              5.657e-04   1.993e-04    -3.247    -3.701    -0.453      0.00
   OH-             6.367e-10   3.661e-10    -9.196    -9.436    -0.240      1.35
   H2O             5.551e+01   9.485e-01     1.744    -0.023     0.000     18.21
C(4)          5.822e-01
   CO2             5.766e-01   9.539e-01    -0.239    -0.020     0.219     25.06
   HCO3-           5.531e-03   2.489e-03    -2.257    -2.604    -0.347     31.72
   CO3-2           1.456e-08   9.180e-10    -7.837    -9.037    -1.200      5.17
Na            2.001e+00
   Na+             2.001e+00   1.007e+00     0.301     0.003    -0.298      1.27
S(6)          1.000e+00
   SO4-2           9.955e-01   5.774e-02    -0.002    -1.238    -1.237     23.51
   HSO4-           4.966e-03   2.482e-03    -2.304    -2.605    -0.301     42.76

------------------------------Saturation indices-------------------------------

	Phase               SI   log IAP   log K(328 K,  80 atm)

	Burkeite        -10.84    -11.50   -0.65  Na6CO3(SO4)2
	CO2(g)            1.75     -0.02   -1.77  CO2	 Pressure  79.6 atm, phi 0.702.
	H2O(g)           -0.81     -0.02    0.79  H2O	 Pressure   0.3 atm, phi 0.468.
	Mirabilite       -1.26     -1.46   -0.20  Na2SO4:10H2O
	Nahcolite        -1.98    -12.73  -10.75  NaHCO3
	Natron           -8.19     -9.26   -1.07  Na2CO3:10H2O
	Thenardite       -0.92     -1.23   -0.32  Na2SO4
	Trona           -10.50    -21.81  -11.31  Na3H(CO3)2:2H2O


Reaction step 4.

Using solution 1.	
Using pure phase assemblage 1.	
Using gas phase 1.	
Using temperature 1.	

-----------------------------------Gas phase-----------------------------------

Total pressure: 80.26      atmospheres          (Peng-Robinson calculation)
    Gas volume:   1.00e+00 liters
  Molar volume:   2.41e-01 liters/mole
   P * Vm / RT:  0.68592  (Compressibility Factor Z) 

                                                        Moles in gas
                                            ----------------------------------
Component         log P           P    phi     Initial       Final       Delta

CO2(g)             1.90   7.968e+01  0.742   0.000e+00   4.126e+00   4.126e+00
H2O(g)            -0.24   5.738e-01  0.532   0.000e+00   2.971e-02   2.971e-02

-------------------------------Phase assemblage--------------------------------

                                                      Moles in assemblage
Phase               SI  log IAP  log K(T, P)   Initial       Final       Delta

CO2(g)            1.77    -0.09     -1.86    1.000e+01   5.375e+00  -4.625e+00

-----------------------------Solution composition------------------------------

	Elements           Molality       Moles

	C                 5.001e-01   4.998e-01
	Na                2.001e+00   2.000e+00
	S                 1.001e+00   1.000e+00

----------------------------Description of solution----------------------------

                                       pH  =   3.870      Charge balance
                                       pe  =   4.000      Adjusted to redox equilibrium
       Specific Conductance (uS/cm, 70 oC) = 97504
                          Density (g/cm3)  =   1.10149
                               Volume (L)  =   1.13664
                        Activity of water  =   0.949
                           Ionic strength  =   2.997e+00
                       Mass of water (kg)  =   9.994e-01
                 Total alkalinity (eq/kg)  =   9.689e-14
                       Total CO2 (mol/kg)  =   5.001e-01
                      Temperature (deg C)  =  70.00
                           Pressure (atm)  = 80.26
                  Electrical balance (eq)  =  -8.349e-10
 Percent error, 100*(Cat-|An|)/(Cat+|An|)  =  -0.00
                               Iterations  =  37
                         Gamma iterations  =   4
                      Osmotic coefficient  =   0.82172
                         Density of water  =   0.98127
                                  Total H  = 1.109530e+02
                                  Total O  = 6.047613e+01

----------------------------Distribution of species----------------------------

                                                    MacInnes  MacInnes
                                MacInnes       Log       Log       Log    mole V
   Species          Molality    Activity  Molality  Activity     Gamma   cm3/mol

   H+              4.186e-04   1.348e-04    -3.378    -3.870    -0.492      0.00
   OH-             2.021e-09   1.194e-09    -8.694    -8.923    -0.229      1.19
   H2O             5.551e+01   9.495e-01     1.744    -0.023     0.000     18.36
C(4)          5.001e-01
   CO2             4.939e-01   8.170e-01    -0.306    -0.088     0.219     23.79
   HCO3-           6.217e-03   2.985e-03    -2.206    -2.525    -0.319     31.51
   CO3-2           2.622e-08   1.736e-09    -7.581    -8.760    -1.179      4.62
Na            2.001e+00
   Na+             2.001e+00   9.885e-01     0.301    -0.005    -0.306      1.44
S(6)          1.001e+00
   SO4-2           9.948e-01   6.250e-02    -0.002    -1.204    -1.202     22.92
   HSO4-           5.798e-03   2.886e-03    -2.237    -2.540    -0.303     43.07

------------------------------Saturation indices-------------------------------

	Phase               SI   log IAP   log K(343 K,  80 atm)

	Burkeite        -10.54    -11.20   -0.66  Na6CO3(SO4)2
	CO2(g)            1.77     -0.09   -1.86  CO2	 Pressure  79.7 atm, phi 0.742.
	H2O(g)           -0.52     -0.02    0.49  H2O	 Pressure   0.6 atm, phi 0.532.
	Mirabilite       -1.40     -1.44   -0.04  Na2SO4:10H2O
	Nahcolite        -1.89    -12.64  -10.75  NaHCO3
	Natron           -7.94     -9.00   -1.06  Na2CO3:10H2O
	Thenardite       -0.90     -1.21   -0.32  Na2SO4
	Trona           -10.14    -21.45  -11.32  Na3H(CO3)2:2H2O


Reaction step 5.

Using solution 1.	
Using pure phase assemblage 1.	
Using gas phase 1.	
Using temperature 1.	

-----------------------------------Gas phase-----------------------------------

Total pressure: 80.73      atmospheres          (Peng-Robinson calculation)
    Gas volume:   1.00e+00 liters
  Molar volume:   2.69e-01 liters/mole
   P * Vm / RT:  0.73891  (Compressibility Factor Z) 

                                                        Moles in gas
                                            ----------------------------------
Component         log P           P    phi     Initial       Final       Delta

CO2(g)             1.90   7.975e+01  0.776   0.000e+00   3.673e+00   3.673e+00
H2O(g)            -0.01   9.719e-01  0.581   0.000e+00   4.475e-02   4.475e-02

-------------------------------Phase assemblage--------------------------------

                                                      Moles in assemblage
Phase               SI  log IAP  log K(T, P)   Initial       Final       Delta

CO2(g)            1.79    -0.14     -1.93    1.000e+01   5.883e+00  -4.117e+00

-----------------------------Solution composition------------------------------

	Elements           Molality       Moles

	C                 4.453e-01   4.449e-01
	Na                2.002e+00   2.000e+00
	S                 1.001e+00   1.000e+00

----------------------------Description of solution----------------------------

                                       pH  =   4.052      Charge balance
                                       pe  =   4.000      Adjusted to redox equilibrium
       Specific Conductance (uS/cm, 85 oC) = 117754
                          Density (g/cm3)  =   1.09187
                               Volume (L)  =   1.14174
                        Activity of water  =   0.950
                           Ionic strength  =   2.996e+00
                       Mass of water (kg)  =   9.991e-01
                 Total alkalinity (eq/kg)  =   1.694e-13
                       Total CO2 (mol/kg)  =   4.453e-01
                      Temperature (deg C)  =  85.00
                           Pressure (atm)  = 80.73
                  Electrical balance (eq)  =  -8.355e-10
 Percent error, 100*(Cat-|An|)/(Cat+|An|)  =  -0.00
                               Iterations  =  39
                         Gamma iterations  =   4
                      Osmotic coefficient  =   0.82880
                         Density of water  =   0.97225
                                  Total H  = 1.109229e+02
                                  Total O  = 6.035132e+01

----------------------------Distribution of species----------------------------

                                                    MacInnes  MacInnes
                                MacInnes       Log       Log       Log    mole V
   Species          Molality    Activity  Molality  Activity     Gamma   cm3/mol

   H+              3.046e-04   8.881e-05    -3.516    -4.052    -0.535      0.00
   OH-             5.906e-09   3.593e-09    -8.229    -8.445    -0.216      0.85
   H2O             5.551e+01   9.498e-01     1.744    -0.022     0.000     18.53
C(4)          4.453e-01
   CO2             4.384e-01   7.251e-01    -0.358    -0.140     0.219     22.84
   HCO3-           6.992e-03   3.589e-03    -2.155    -2.445    -0.290     31.17
   CO3-2           4.554e-08   3.159e-09    -7.342    -8.500    -1.159      3.72
Na            2.002e+00
   Na+             2.002e+00   9.654e-01     0.301    -0.015    -0.317      1.60
S(6)          1.001e+00
   SO4-2           9.942e-01   6.783e-02    -0.003    -1.169    -1.166     22.01
   HSO4-           6.687e-03   3.320e-03    -2.175    -2.479    -0.304     43.24

------------------------------Saturation indices-------------------------------

	Phase               SI   log IAP   log K(358 K,  81 atm)

	Burkeite        -10.27    -10.93   -0.66  Na6CO3(SO4)2
	CO2(g)            1.79     -0.14   -1.93  CO2	 Pressure  79.8 atm, phi 0.776.
	H2O(g)           -0.25     -0.02    0.23  H2O	 Pressure   1.0 atm, phi 0.581.
	Mirabilite       -1.28     -1.42   -0.14  Na2SO4:10H2O
	Nahcolite        -1.82    -12.57  -10.75  NaHCO3
	Natron           -7.70     -8.75   -1.05  Na2CO3:10H2O
	Thenardite       -0.88     -1.20   -0.32  Na2SO4
	Trona            -9.83    -21.14  -11.32  Na3H(CO3)2:2H2O


Reaction step 6.

Using solution 1.	
Using pure phase assemblage 1.	
Using gas phase 1.	
Using temperature 1.	

-----------------------------------Gas phase-----------------------------------

Total pressure: 81.44      atmospheres          (Peng-Robinson calculation)
    Gas volume:   1.00e+00 liters
  Molar volume:   2.92e-01 liters/mole
   P * Vm / RT:  0.77789  (Compressibility Factor Z) 

                                                        Moles in gas
                                            ----------------------------------
Component         log P           P    phi     Initial       Final       Delta

CO2(g)             1.90   7.984e+01  0.804   0.000e+00   3.352e+00   3.352e+00
H2O(g)             0.20   1.591e+00  0.620   0.000e+00   6.681e-02   6.681e-02

-------------------------------Phase assemblage--------------------------------

                                                      Moles in assemblage
Phase               SI  log IAP  log K(T, P)   Initial       Final       Delta

CO2(g)            1.81    -0.18     -1.99    1.000e+01   6.239e+00  -3.761e+00

-----------------------------Solution composition------------------------------

	Elements           Molality       Moles

	C                 4.092e-01   4.086e-01
	Na                2.003e+00   2.000e+00
	S                 1.001e+00   1.000e+00

----------------------------Description of solution----------------------------

                                       pH  =   4.241      Charge balance
                                       pe  =   4.000      Adjusted to redox equilibrium
       Specific Conductance (uS/cm, 100 oC) = 138423
                          Density (g/cm3)  =   1.08144
                               Volume (L)  =   1.14925
                        Activity of water  =   0.950
                           Ionic strength  =   2.997e+00
                       Mass of water (kg)  =   9.987e-01
                 Total alkalinity (eq/kg)  =   3.080e-13
                       Total CO2 (mol/kg)  =   4.092e-01
                      Temperature (deg C)  = 100.00
                           Pressure (atm)  = 81.44
                  Electrical balance (eq)  =  -8.368e-10
 Percent error, 100*(Cat-|An|)/(Cat+|An|)  =  -0.00
                               Iterations  =  38
                         Gamma iterations  =   4
                      Osmotic coefficient  =   0.83807
                         Density of water  =   0.96219
                                  Total H  = 1.108788e+02
                                  Total O  = 6.025665e+01

----------------------------Distribution of species----------------------------

                                                    MacInnes  MacInnes
                                MacInnes       Log       Log       Log    mole V
   Species          Molality    Activity  Molality  Activity     Gamma   cm3/mol

   H+              2.196e-04   5.746e-05    -3.658    -4.241    -0.582      0.00
   OH-             1.599e-08   1.002e-08    -7.796    -7.999    -0.203      0.35
   H2O             5.551e+01   9.498e-01     1.744    -0.022     0.000     18.72
C(4)          4.092e-01
   CO2             4.013e-01   6.638e-01    -0.397    -0.178     0.219     22.15
   HCO3-           7.869e-03   4.322e-03    -2.104    -2.364    -0.260     30.72
   CO3-2           7.648e-08   5.532e-09    -7.116    -8.257    -1.141      2.53
Na            2.003e+00
   Na+             2.003e+00   9.374e-01     0.302    -0.028    -0.330      1.75
S(6)          1.001e+00
   SO4-2           9.937e-01   7.348e-02    -0.003    -1.134    -1.131     20.86
   HSO4-           7.649e-03   3.792e-03    -2.116    -2.421    -0.305     43.30

------------------------------Saturation indices-------------------------------

	Phase               SI   log IAP   log K(373 K,  81 atm)

	Burkeite        -10.03    -10.69   -0.66  Na6CO3(SO4)2
	CO2(g)            1.81     -0.18   -1.99  CO2	 Pressure  79.8 atm, phi 0.804.
	H2O(g)           -0.01     -0.02   -0.02  H2O	 Pressure   1.6 atm, phi 0.620.
	Mirabilite       -0.89     -1.41   -0.53  Na2SO4:10H2O
	Nahcolite        -1.78    -12.53  -10.75  NaHCO3
	Natron           -7.49     -8.54   -1.05  Na2CO3:10H2O
	Thenardite       -0.87     -1.19   -0.32  Na2SO4
	Trona            -9.57    -20.88  -11.32  Na3H(CO3)2:2H2O


Reaction step 7.

Using solution 1.	
Using pure phase assemblage 1.	
Using gas phase 1.	
Using temperature 1.	

-----------------------------------Gas phase-----------------------------------

Total pressure: 82.47      atmospheres          (Peng-Robinson calculation)
    Gas volume:   1.00e+00 liters
  Molar volume:   3.12e-01 liters/mole
   P * Vm / RT:  0.80739  (Compressibility Factor Z) 

                                                        Moles in gas
                                            ----------------------------------
Component         log P           P    phi     Initial       Final       Delta

CO2(g)             1.90   7.995e+01  0.827   0.000e+00   3.109e+00   3.109e+00
H2O(g)             0.40   2.519e+00  0.650   0.000e+00   9.793e-02   9.793e-02

-------------------------------Phase assemblage--------------------------------

                                                      Moles in assemblage
Phase               SI  log IAP  log K(T, P)   Initial       Final       Delta

CO2(g)            1.82    -0.20     -2.03    1.000e+01   6.506e+00  -3.494e+00

-----------------------------Solution composition------------------------------

	Elements           Molality       Moles

	C                 3.862e-01   3.855e-01
	Na                2.004e+00   2.000e+00
	S                 1.002e+00   1.000e+00

----------------------------Description of solution----------------------------

                                       pH  =   4.437      Charge balance
                                       pe  =   4.000      Adjusted to redox equilibrium
       Specific Conductance (uS/cm, 115 oC) = 160049
                          Density (g/cm3)  =   1.06603
                               Volume (L)  =   1.16332
                        Activity of water  =   0.949
                           Ionic strength  =   2.997e+00
                       Mass of water (kg)  =   9.981e-01
                 Total alkalinity (eq/kg)  =  -8.731e-12
                       Total CO2 (mol/kg)  =   3.862e-01
                      Temperature (deg C)  = 115.00
                           Pressure (atm)  = 82.47
                  Electrical balance (eq)  =  -7.507e-10
 Percent error, 100*(Cat-|An|)/(Cat+|An|)  =  -0.00
                               Iterations  =  36
                         Gamma iterations  =   4
                      Osmotic coefficient  =   0.84941
                         Density of water  =   0.94708
                                  Total H  = 1.108166e+02
                                  Total O  = 6.017929e+01

----------------------------Distribution of species----------------------------

                                                    MacInnes  MacInnes
                                MacInnes       Log       Log       Log    mole V
   Species          Molality    Activity  Molality  Activity     Gamma   cm3/mol

   H+              1.565e-04   3.659e-05    -3.805    -4.437    -0.631      0.00
   OH-             4.039e-08   2.614e-08    -7.394    -7.583    -0.189     -0.40
   H2O             5.551e+01   9.494e-01     1.744    -0.023     0.000     19.02
C(4)          3.862e-01
   CO2             3.774e-01   6.243e-01    -0.423    -0.205     0.219     21.64
   HCO3-           8.874e-03   5.226e-03    -2.052    -2.282    -0.230     30.06
   CO3-2           1.245e-07   9.405e-09    -6.905    -8.027    -1.122      0.80
Na            2.004e+00
   Na+             2.004e+00   9.078e-01     0.302    -0.042    -0.344      1.90
S(6)          1.002e+00
   SO4-2           9.932e-01   7.990e-02    -0.003    -1.097    -1.094     19.29
   HSO4-           8.718e-03   4.321e-03    -2.060    -2.364    -0.305     43.19

------------------------------Saturation indices-------------------------------

	Phase               SI   log IAP   log K(388 K,  82 atm)

	Burkeite         -9.81    -10.47   -0.66  Na6CO3(SO4)2
	CO2(g)            1.82     -0.20   -2.03  CO2	 Pressure  79.9 atm, phi 0.827.
	H2O(g)            0.21     -0.02   -0.24  H2O	 Pressure   2.5 atm, phi 0.650.
	Mirabilite       -0.20     -1.41   -1.21  Na2SO4:10H2O
	Nahcolite        -1.76    -12.51  -10.75  NaHCO3
	Natron           -7.29     -8.34   -1.04  Na2CO3:10H2O
	Thenardite       -0.86     -1.18   -0.32  Na2SO4
	Trona            -9.34    -20.66  -11.32  Na3H(CO3)2:2H2O


Reaction step 8.

Using solution 1.	
Using pure phase assemblage 1.	
Using gas phase 1.	
Using temperature 1.	

-----------------------------------Gas phase-----------------------------------

Total pressure: 83.92      atmospheres          (Peng-Robinson calculation)
    Gas volume:   1.00e+00 liters
  Molar volume:   3.27e-01 liters/mole
   P * Vm / RT:  0.82979  (Compressibility Factor Z) 

                                                        Moles in gas
                                            ----------------------------------
Component         log P           P    phi     Initial       Final       Delta

CO2(g)             1.90   8.006e+01  0.847   0.000e+00   2.916e+00   2.916e+00
H2O(g)             0.59   3.859e+00  0.674   0.000e+00   1.406e-01   1.406e-01

-------------------------------Phase assemblage--------------------------------

                                                      Moles in assemblage
Phase               SI  log IAP  log K(T, P)   Initial       Final       Delta

CO2(g)            1.83    -0.22     -2.05    1.000e+01   6.711e+00  -3.289e+00

-----------------------------Solution composition------------------------------

	Elements           Molality       Moles

	C                 3.732e-01   3.722e-01
	Na                2.005e+00   2.000e+00
	S                 1.003e+00   1.000e+00

----------------------------Description of solution----------------------------

                                       pH  =   4.634      Charge balance
                                       pe  =   4.000      Adjusted to redox equilibrium
       Specific Conductance (uS/cm, 130 oC) = 180473
                          Density (g/cm3)  =   1.05365
                               Volume (L)  =   1.17509
                        Activity of water  =   0.949
                           Ionic strength  =   2.998e+00
                       Mass of water (kg)  =   9.973e-01
                 Total alkalinity (eq/kg)  =  -7.428e-12
                       Total CO2 (mol/kg)  =   3.732e-01
                      Temperature (deg C)  = 130.00
                           Pressure (atm)  = 83.92
                  Electrical balance (eq)  =  -7.525e-10
 Percent error, 100*(Cat-|An|)/(Cat+|An|)  =  -0.00
                               Iterations  =  39
                         Gamma iterations  =   4
                      Osmotic coefficient  =   0.86012
                         Density of water  =   0.93484
                                  Total H  = 1.107313e+02
                                  Total O  = 6.010998e+01

----------------------------Distribution of species----------------------------

                                                    MacInnes  MacInnes
                                MacInnes       Log       Log       Log    mole V
   Species          Molality    Activity  Molality  Activity     Gamma   cm3/mol

   H+              1.123e-04   2.321e-05    -3.950    -4.634    -0.685      0.00
   OH-             9.538e-08   6.350e-08    -7.021    -7.197    -0.177     -1.31
   H2O             5.551e+01   9.490e-01     1.744    -0.023     0.000     19.27
C(4)          3.732e-01
   CO2             3.632e-01   6.010e-01    -0.440    -0.221     0.219     21.29
   HCO3-           9.987e-03   6.282e-03    -2.001    -2.202    -0.201     29.31
   CO3-2           1.971e-07   1.528e-08    -6.705    -7.816    -1.111     -1.03
Na            2.005e+00
   Na+             2.005e+00   8.718e-01     0.302    -0.060    -0.362      2.10
S(6)          1.003e+00
   SO4-2           9.928e-01   8.551e-02    -0.003    -1.068    -1.065     17.79
   HSO4-           9.875e-03   4.877e-03    -2.005    -2.312    -0.306     43.04

------------------------------Saturation indices-------------------------------

	Phase               SI   log IAP   log K(403 K,  84 atm)

	Burkeite         -9.65    -10.31   -0.66  Na6CO3(SO4)2
	CO2(g)            1.83     -0.22   -2.05  CO2	 Pressure  80.1 atm, phi 0.847.
	H2O(g)            0.42     -0.02   -0.44  H2O	 Pressure   3.9 atm, phi 0.674.
	Mirabilite        0.77     -1.41   -2.19  Na2SO4:10H2O
	Nahcolite        -1.77    -12.51  -10.74  NaHCO3
	Natron           -7.12     -8.16   -1.04  Na2CO3:10H2O
	Thenardite       -0.87     -1.19   -0.32  Na2SO4
	Trona            -9.18    -20.49  -11.32  Na3H(CO3)2:2H2O


Reaction step 9.

Using solution 1.	
Using pure phase assemblage 1.	
Using gas phase 1.	
Using temperature 1.	

-----------------------------------Gas phase-----------------------------------

Total pressure: 85.91      atmospheres          (Peng-Robinson calculation)
    Gas volume:   1.00e+00 liters
  Molar volume:   3.38e-01 liters/mole
   P * Vm / RT:  0.84650  (Compressibility Factor Z) 

                                                        Moles in gas
                                            ----------------------------------
Component         log P           P    phi     Initial       Final       Delta

CO2(g)             1.90   8.017e+01  0.865   0.000e+00   2.760e+00   2.760e+00
H2O(g)             0.76   5.740e+00  0.692   0.000e+00   1.976e-01   1.976e-01

-------------------------------Phase assemblage--------------------------------

                                                      Moles in assemblage
Phase               SI  log IAP  log K(T, P)   Initial       Final       Delta

CO2(g)            1.84    -0.23     -2.07    1.000e+01   6.873e+00  -3.127e+00

-----------------------------Solution composition------------------------------

	Elements           Molality       Moles

	C                 3.679e-01   3.665e-01
	Na                2.008e+00   2.000e+00
	S                 1.004e+00   1.000e+00

----------------------------Description of solution----------------------------

                                       pH  =   4.834      Charge balance
                                       pe  =   4.000      Adjusted to redox equilibrium
       Specific Conductance (uS/cm, 145 oC) = 199968
                          Density (g/cm3)  =   1.04029
                               Volume (L)  =   1.18868
                        Activity of water  =   0.948
                           Ionic strength  =   3.000e+00
                       Mass of water (kg)  =   9.962e-01
                 Total alkalinity (eq/kg)  =  -6.872e-12
                       Total CO2 (mol/kg)  =   3.679e-01
                      Temperature (deg C)  = 145.00
                           Pressure (atm)  = 85.91
                  Electrical balance (eq)  =  -7.489e-10
 Percent error, 100*(Cat-|An|)/(Cat+|An|)  =  -0.00
                               Iterations  =  38
                         Gamma iterations  =   4
                      Osmotic coefficient  =   0.87055
                         Density of water  =   0.92163
                                  Total H  = 1.106172e+02
                                  Total O  = 6.004160e+01

----------------------------Distribution of species----------------------------

                                                    MacInnes  MacInnes
                                MacInnes       Log       Log       Log    mole V
   Species          Molality    Activity  Molality  Activity     Gamma   cm3/mol

   H+              8.075e-05   1.466e-05    -4.093    -4.834    -0.741      0.00
   OH-             2.119e-07   1.448e-07    -6.674    -6.839    -0.165     -2.45
   H2O             5.551e+01   9.484e-01     1.744    -0.023     0.000     19.55
C(4)          3.679e-01
   CO2             3.567e-01   5.903e-01    -0.448    -0.229     0.219     21.08
   HCO3-           1.123e-02   7.527e-03    -1.950    -2.123    -0.174     28.36
   CO3-2           3.042e-07   2.391e-08    -6.517    -7.621    -1.105     -3.21
Na            2.008e+00
   Na+             2.008e+00   8.326e-01     0.303    -0.080    -0.382      2.33
S(6)          1.004e+00
   SO4-2           9.926e-01   9.059e-02    -0.003    -1.043    -1.040     16.16
   HSO4-           1.115e-02   5.470e-03    -1.953    -2.262    -0.309     42.80

------------------------------Saturation indices-------------------------------

	Phase               SI   log IAP   log K(418 K,  86 atm)

	Burkeite         -9.53    -10.18   -0.65  Na6CO3(SO4)2
	CO2(g)            1.84     -0.23   -2.07  CO2	 Pressure  80.2 atm, phi 0.865.
	H2O(g)            0.60     -0.02   -0.62  H2O	 Pressure   5.7 atm, phi 0.692.
	Mirabilite        2.04     -1.43   -3.48  Na2SO4:10H2O
	Nahcolite        -1.79    -12.53  -10.74  NaHCO3
	Natron           -6.97     -8.01   -1.04  Na2CO3:10H2O
	Thenardite       -0.89     -1.20   -0.32  Na2SO4
	Trona            -9.05    -20.36  -11.31  Na3H(CO3)2:2H2O


Reaction step 10.

Using solution 1.	
Using pure phase assemblage 1.	
Using gas phase 1.	
Using temperature 1.	

-----------------------------------Gas phase-----------------------------------

Total pressure: 88.57      atmospheres          (Peng-Robinson calculation)
    Gas volume:   1.00e+00 liters
  Molar volume:   3.44e-01 liters/mole
   P * Vm / RT:  0.85836  (Compressibility Factor Z) 

                                                        Moles in gas
                                            ----------------------------------
Component         log P           P    phi     Initial       Final       Delta

CO2(g)             1.90   8.026e+01  0.880   0.000e+00   2.631e+00   2.631e+00
H2O(g)             0.92   8.309e+00  0.704   0.000e+00   2.724e-01   2.724e-01

-------------------------------Phase assemblage--------------------------------

                                                      Moles in assemblage
Phase               SI  log IAP  log K(T, P)   Initial       Final       Delta

CO2(g)            1.85    -0.23     -2.08    1.000e+01   7.002e+00  -2.998e+00

-----------------------------Solution composition------------------------------

	Elements           Molality       Moles

	C                 3.690e-01   3.672e-01
	Na                2.010e+00   2.000e+00
	S                 1.005e+00   1.000e+00

----------------------------Description of solution----------------------------

                                       pH  =   5.034      Charge balance
                                       pe  =   4.000      Adjusted to redox equilibrium
       Specific Conductance (uS/cm, 160 oC) = 217977
                          Density (g/cm3)  =   1.02592
                               Volume (L)  =   1.20408
                        Activity of water  =   0.948
                           Ionic strength  =   3.003e+00
                       Mass of water (kg)  =   9.949e-01
                 Total alkalinity (eq/kg)  =  -7.000e-12
                       Total CO2 (mol/kg)  =   3.690e-01
                      Temperature (deg C)  = 160.00
                           Pressure (atm)  = 88.57
                  Electrical balance (eq)  =  -7.381e-10
 Percent error, 100*(Cat-|An|)/(Cat+|An|)  =  -0.00
                               Iterations  =  40
                         Gamma iterations  =   4
                      Osmotic coefficient  =   0.88027
                         Density of water  =   0.90745
                                  Total H  = 1.104677e+02
                                  Total O  = 5.996818e+01

----------------------------Distribution of species----------------------------

                                                    MacInnes  MacInnes
                                MacInnes       Log       Log       Log    mole V
   Species          Molality    Activity  Molality  Activity     Gamma   cm3/mol

   H+              5.839e-05   9.243e-06    -4.234    -5.034    -0.801      0.00
   OH-             4.443e-07   3.107e-07    -6.352    -6.508    -0.155     -3.90
   H2O             5.551e+01   9.477e-01     1.744    -0.023     0.000     19.85
C(4)          3.690e-01
   CO2             3.565e-01   5.902e-01    -0.448    -0.229     0.219     21.01
   HCO3-           1.259e-02   8.977e-03    -1.900    -2.047    -0.147     27.18
   CO3-2           4.588e-07   3.609e-08    -6.338    -7.443    -1.104     -5.80
Na            2.010e+00
   Na+             2.010e+00   7.906e-01     0.303    -0.102    -0.405      2.63
S(6)          1.005e+00
   SO4-2           9.926e-01   9.480e-02    -0.003    -1.023    -1.020     14.42
   HSO4-           1.254e-02   6.097e-03    -1.902    -2.215    -0.313     42.45

------------------------------Saturation indices-------------------------------

	Phase               SI   log IAP   log K(433 K,  89 atm)

	Burkeite         -9.45    -10.10   -0.65  Na6CO3(SO4)2
	CO2(g)            1.85     -0.23   -2.08  CO2	 Pressure  80.3 atm, phi 0.880.
	H2O(g)            0.77     -0.02   -0.79  H2O	 Pressure   8.3 atm, phi 0.704.
	Mirabilite        3.61     -1.46   -5.07  Na2SO4:10H2O
	Nahcolite        -1.84    -12.58  -10.74  NaHCO3
	Natron           -6.84     -7.88   -1.04  Na2CO3:10H2O
	Thenardite       -0.91     -1.23   -0.31  Na2SO4
	Trona            -8.96    -20.27  -11.31  Na3H(CO3)2:2H2O


------------------
End of simulation.
------------------

------------------------------------
Reading input data for simulation 2.
------------------------------------

	SOLUTION 1
	 pH 7 charge
	 Na 4e3
	 S(6) 2e3
	 temp 25
	USE equilibrium_phases 1
	 USE reaction_temperature 1
	 USE gas_phase 1
	END
-------------------------------------------
Beginning of initial solution calculations.
-------------------------------------------

Initial solution 1.	

-----------------------------Solution composition------------------------------

	Elements           Molality       Moles

	Na                4.000e+00   4.000e+00
	S(6)              2.000e+00   2.000e+00

----------------------------Description of solution----------------------------

                                       pH  =   7.410      Charge balance
                                       pe  =   4.000    
       Specific Conductance (uS/cm, 25 oC) = 27307
                          Density (g/cm3)  =   1.20871
                               Volume (L)  =   1.16826
                        Activity of water  =   0.935
                           Ionic strength  =   6.000e+00
                       Mass of water (kg)  =   1.000e+00
                 Total alkalinity (eq/kg)  =  -1.162e-16
                    Total carbon (mol/kg)  =   0.000e+00
                       Total CO2 (mol/kg)  =   0.000e+00
                      Temperature (deg C)  =  25.00
                  Electrical balance (eq)  =  -1.242e-12
 Percent error, 100*(Cat-|An|)/(Cat+|An|)  =  -0.00
                               Iterations  =  13
                         Gamma iterations  =   5
                      Osmotic coefficient  =   0.62434
                         Density of water  =   0.99704
                                  Total H  = 1.110124e+02
                                  Total O  = 6.350622e+01

----------------------------Distribution of species----------------------------

                                                    MacInnes  MacInnes
                                MacInnes       Log       Log       Log    mole V
   Species          Molality    Activity  Molality  Activity     Gamma   cm3/mol

   OH-             4.377e-07   2.431e-07    -6.359    -6.614    -0.255      4.71
   H+              7.556e-08   3.893e-08    -7.122    -7.410    -0.288      0.00
   H2O             5.551e+01   9.347e-01     1.744    -0.029     0.000     18.07
Na            4.000e+00
   Na+             4.000e+00   1.698e+00     0.602     0.230    -0.372      1.42
S(6)          2.000e+00
   SO4-2           2.000e+00   4.193e-02     0.301    -1.377    -1.679     26.86
   HSO4-           3.621e-07   1.555e-07    -6.441    -6.808    -0.367     42.04

------------------------------Saturation indices-------------------------------

	Phase               SI   log IAP   log K(298 K,   1 atm)

	H2O(g)           -1.53     -0.03    1.50  H2O
	Mirabilite        0.00     -1.21   -1.21  Na2SO4:10H2O
	Thenardite       -0.57     -0.92   -0.35  Na2SO4


-----------------------------------------
Beginning of batch-reaction calculations.
-----------------------------------------

Reaction step 1.

WARNING: Numerical method failed, switching to numerical derivatives.
Using solution 1.	
Using pure phase assemblage 1.	
Using gas phase 1.	
Using temperature 1.	

-----------------------------------Gas phase-----------------------------------

Total pressure: 65.13      atmospheres          (Peng-Robinson calculation)
    Gas volume:   1.00e+00 liters
  Molar volume:   1.05e-01 liters/mole
   P * Vm / RT:  0.28077  (Compressibility Factor Z) 

                                                        Moles in gas
                                            ----------------------------------
Component         log P           P    phi     Initial       Final       Delta

CO2(g)             1.81   6.502e+01  0.657   0.000e+00   9.466e+00   9.466e+00
H2O(g)            -0.97   1.063e-01  0.284   0.000e+00   1.548e-02   1.548e-02

-------------------------------Phase assemblage--------------------------------

                                                      Moles in assemblage
Phase               SI  log IAP  log K(T, P)   Initial       Final       Delta

CO2(g)            1.63     0.14     -1.49    1.000e+01           0  -1.000e+01

-----------------------------Solution composition------------------------------

	Elements           Molality       Moles

	C                 5.345e-01   5.343e-01
	Na                4.001e+00   4.000e+00
	S                 2.001e+00   2.000e+00

----------------------------Description of solution----------------------------

                                       pH  =   3.402      Charge balance
                                       pe  =   4.000      Adjusted to redox equilibrium
       Specific Conductance (uS/cm, 25 oC) = 32284
                          Density (g/cm3)  =   1.21562
                               Volume (L)  =   1.20227
                        Activity of water  =   0.918
                           Ionic strength  =   5.999e+00
                       Mass of water (kg)  =   9.996e-01
                 Total alkalinity (eq/kg)  =   3.224e-14
                       Total CO2 (mol/kg)  =   5.345e-01
                      Temperature (deg C)  =  25.00
                           Pressure (atm)  = 65.13
                  Electrical balance (eq)  =   3.905e-11
 Percent error, 100*(Cat-|An|)/(Cat+|An|)  =   0.00
                               Iterations  = 148
                         Gamma iterations  =   5
                      Osmotic coefficient  =   0.72252
                         Density of water  =   0.99704
                                  Total H  = 1.109815e+02
                                  Total O  = 6.455929e+01

----------------------------Distribution of species----------------------------

                                                    MacInnes  MacInnes
                                MacInnes       Log       Log       Log    mole V
   Species          Molality    Activity  Molality  Activity     Gamma   cm3/mol

   H+              7.723e-04   3.967e-04    -3.112    -3.402    -0.289      0.00
   OH-             4.343e-11   2.425e-11   -10.362   -10.615    -0.253      4.91
   H2O             5.551e+01   9.184e-01     1.744    -0.037     0.000     18.02
C(4)          5.345e-01
   CO2             5.299e-01   1.367e+00    -0.276     0.136     0.412     29.36
   HCO3-           4.598e-03   1.479e-03    -2.337    -2.830    -0.493     37.65
   CO3-2           5.998e-09   1.840e-10    -8.222    -9.735    -1.513      9.06
Na            4.001e+00
   Na+             4.001e+00   1.821e+00     0.602     0.260    -0.342      1.65
S(6)          2.001e+00
   SO4-2           1.997e+00   4.534e-02     0.300    -1.343    -1.644     26.67
   HSO4-           3.826e-03   1.647e-03    -2.417    -2.783    -0.366     41.86

------------------------------Saturation indices-------------------------------

	Phase               SI   log IAP   log K(298 K,  65 atm)

	Burkeite        -10.18    -10.86   -0.68  Na6CO3(SO4)2
	CO2(g)            1.63      0.14   -1.49  CO2	 Pressure  65.0 atm, phi 0.657.
	H2O(g)           -1.52     -0.04    1.48  H2O	 Pressure   0.1 atm, phi 0.284.
	Mirabilite        0.01     -1.19   -1.21  Na2SO4:10H2O
	Nahcolite        -2.12    -12.88  -10.75  NaHCO3
	Natron           -8.54     -9.58   -1.04  Na2CO3:10H2O
	Thenardite       -0.50     -0.82   -0.32  Na2SO4
	Trona           -10.83    -22.16  -11.33  Na3H(CO3)2:2H2O


Reaction step 2.

Using solution 1.	
Using pure phase assemblage 1.	
Using gas phase 1.	
Using temperature 1.	

-----------------------------------Gas phase-----------------------------------

Total pressure: 79.85      atmospheres          (Peng-Robinson calculation)
    Gas volume:   1.00e+00 liters
  Molar volume:   1.48e-01 liters/mole
   P * Vm / RT:  0.45893  (Compressibility Factor Z) 

                                                        Moles in gas
                                            ----------------------------------
Component         log P           P    phi     Initial       Final       Delta

CO2(g)             1.90   7.965e+01  0.649   0.000e+00   6.754e+00   6.754e+00
H2O(g)            -0.71   1.937e-01  0.364   0.000e+00   1.643e-02   1.643e-02

-------------------------------Phase assemblage--------------------------------

                                                      Moles in assemblage
Phase               SI  log IAP  log K(T, P)   Initial       Final       Delta

CO2(g)            1.71     0.06     -1.65    1.000e+01   2.792e+00  -7.208e+00

-----------------------------Solution composition------------------------------

	Elements           Molality       Moles

	C                 4.536e-01   4.534e-01
	Na                4.002e+00   4.000e+00
	S                 2.001e+00   2.000e+00

----------------------------Description of solution----------------------------

                                       pH  =   3.551      Charge balance
                                       pe  =   4.000      Adjusted to redox equilibrium
       Specific Conductance (uS/cm, 40 oC) = 46472
                          Density (g/cm3)  =   1.20973
                               Volume (L)  =   1.20190
                        Activity of water  =   0.918
                           Ionic strength  =   5.998e+00
                       Mass of water (kg)  =   9.996e-01
                 Total alkalinity (eq/kg)  =  -2.094e-13
                       Total CO2 (mol/kg)  =   4.536e-01
                      Temperature (deg C)  =  40.00
                           Pressure (atm)  = 79.85
                  Electrical balance (eq)  =   8.757e-12
 Percent error, 100*(Cat-|An|)/(Cat+|An|)  =   0.00
                               Iterations  =  41
                         Gamma iterations  =   5
                      Osmotic coefficient  =   0.73688
                         Density of water  =   0.99564
                                  Total H  = 1.109796e+02
                                  Total O  = 6.439663e+01

----------------------------Distribution of species----------------------------

                                                    MacInnes  MacInnes
                                MacInnes       Log       Log       Log    mole V
   Species          Molality    Activity  Molality  Activity     Gamma   cm3/mol

   H+              6.050e-04   2.810e-04    -3.218    -3.551    -0.333      0.00
   OH-             1.732e-10   9.945e-11    -9.761   -10.002    -0.241      5.35
   H2O             5.551e+01   9.179e-01     1.744    -0.037     0.000     18.09
C(4)          4.536e-01
   CO2             4.481e-01   1.156e+00    -0.349     0.063     0.412     26.84
   HCO3-           5.517e-03   1.998e-03    -2.258    -2.699    -0.441     36.92
   CO3-2           1.269e-08   4.545e-10    -7.896    -9.343    -1.446      8.68
Na            4.002e+00
   Na+             4.002e+00   1.849e+00     0.602     0.267    -0.335      1.77
S(6)          2.001e+00
   SO4-2           1.996e+00   5.341e-02     0.300    -1.272    -1.573     27.17
   HSO4-           4.912e-03   2.091e-03    -2.309    -2.680    -0.371     42.63

------------------------------Saturation indices-------------------------------

	Phase               SI   log IAP   log K(313 K,  80 atm)

	Burkeite         -9.62    -10.29   -0.67  Na6CO3(SO4)2
	CO2(g)            1.71      0.06   -1.65  CO2	 Pressure  79.7 atm, phi 0.649.
	H2O(g)           -1.15     -0.04    1.11  H2O	 Pressure   0.2 atm, phi 0.364.
	Mirabilite       -0.50     -1.11   -0.61  Na2SO4:10H2O
	Nahcolite        -1.87    -12.63  -10.76  NaHCO3
	Natron           -8.10     -9.18   -1.08  Na2CO3:10H2O
	Thenardite       -0.42     -0.74   -0.32  Na2SO4
	Trona           -10.19    -21.51  -11.32  Na3H(CO3)2:2H2O


Reaction step 3.

Using solution 1.	
Using pure phase assemblage 1.	
Using gas phase 1.	
Using temperature 1.	

-----------------------------------Gas phase-----------------------------------

Total pressure: 79.95      atmospheres          (Peng-Robinson calculation)
    Gas volume:   1.00e+00 liters
  Molar volume:   2.05e-01 liters/mole
   P * Vm / RT:  0.60851  (Compressibility Factor Z) 

                                                        Moles in gas
                                            ----------------------------------
Component         log P           P    phi     Initial       Final       Delta

CO2(g)             1.90   7.963e+01  0.702   0.000e+00   4.860e+00   4.860e+00
H2O(g)            -0.50   3.195e-01  0.469   0.000e+00   1.950e-02   1.950e-02

-------------------------------Phase assemblage--------------------------------

                                                      Moles in assemblage
Phase               SI  log IAP  log K(T, P)   Initial       Final       Delta

CO2(g)            1.75    -0.02     -1.77    1.000e+01   4.764e+00  -5.236e+00

-----------------------------Solution composition------------------------------

	Elements           Molality       Moles

	C                 3.761e-01   3.760e-01
	Na                4.002e+00   4.000e+00
	S                 2.001e+00   2.000e+00

----------------------------Description of solution----------------------------

                                       pH  =   3.739      Charge balance
                                       pe  =   4.000      Adjusted to redox equilibrium
       Specific Conductance (uS/cm, 55 oC) = 59994
                          Density (g/cm3)  =   1.20238
                               Volume (L)  =   1.20321
                        Activity of water  =   0.918
                           Ionic strength  =   5.997e+00
                       Mass of water (kg)  =   9.995e-01
                 Total alkalinity (eq/kg)  =  -1.247e-13
                       Total CO2 (mol/kg)  =   3.761e-01
                      Temperature (deg C)  =  55.00
                           Pressure (atm)  = 79.95
                  Electrical balance (eq)  =  -7.264e-12
 Percent error, 100*(Cat-|An|)/(Cat+|An|)  =  -0.00
                               Iterations  =  38
                         Gamma iterations  =   5
                      Osmotic coefficient  =   0.74812
                         Density of water  =   0.98911
                                  Total H  = 1.109734e+02
                                  Total O  = 6.423867e+01

----------------------------Distribution of species----------------------------

                                                    MacInnes  MacInnes
                                MacInnes       Log       Log       Log    mole V
   Species          Molality    Activity  Molality  Activity     Gamma   cm3/mol

   H+              4.468e-04   1.823e-04    -3.350    -3.739    -0.389      0.00
   OH-             6.434e-10   3.824e-10    -9.192    -9.418    -0.226      5.50
   H2O             5.551e+01   9.176e-01     1.744    -0.037     0.000     18.21
C(4)          3.761e-01
   CO2             3.698e-01   9.539e-01    -0.432    -0.020     0.412     25.06
   HCO3-           6.327e-03   2.596e-03    -2.199    -2.586    -0.387     36.31
   CO3-2           2.527e-08   1.052e-09    -7.597    -8.978    -1.380      7.93
Na            4.002e+00
   Na+             4.002e+00   1.825e+00     0.602     0.261    -0.341      1.81
S(6)          2.001e+00
   SO4-2           1.995e+00   6.274e-02     0.300    -1.202    -1.502     27.03
   HSO4-           5.880e-03   2.489e-03    -2.231    -2.604    -0.373     43.19

------------------------------Saturation indices-------------------------------

	Phase               SI   log IAP   log K(328 K,  80 atm)

	Burkeite         -9.14     -9.82   -0.67  Na6CO3(SO4)2
	CO2(g)            1.75     -0.02   -1.77  CO2	 Pressure  79.6 atm, phi 0.702.
	H2O(g)           -0.82     -0.04    0.79  H2O	 Pressure   0.3 atm, phi 0.469.
	Mirabilite       -0.85     -1.05   -0.21  Na2SO4:10H2O
	Nahcolite        -1.70    -12.46  -10.75  NaHCO3
	Natron           -7.76     -8.83   -1.07  Na2CO3:10H2O
	Thenardite       -0.36     -0.68   -0.32  Na2SO4
	Trona            -9.66    -20.99  -11.32  Na3H(CO3)2:2H2O


Reaction step 4.

Using solution 1.	
Using pure phase assemblage 1.	
Using gas phase 1.	
Using temperature 1.	

-----------------------------------Gas phase-----------------------------------

Total pressure: 80.23      atmospheres          (Peng-Robinson calculation)
    Gas volume:   1.00e+00 liters
  Molar volume:   2.41e-01 liters/mole
   P * Vm / RT:  0.68617  (Compressibility Factor Z) 

                                                        Moles in gas
                                            ----------------------------------
Component         log P           P    phi     Initial       Final       Delta

CO2(g)             1.90   7.968e+01  0.742   0.000e+00   4.124e+00   4.124e+00
H2O(g)            -0.26   5.537e-01  0.533   0.000e+00   2.866e-02   2.866e-02

-------------------------------Phase assemblage--------------------------------

                                                      Moles in assemblage
Phase               SI  log IAP  log K(T, P)   Initial       Final       Delta

CO2(g)            1.77    -0.09     -1.86    1.000e+01   5.553e+00  -4.447e+00

-----------------------------Solution composition------------------------------

	Elements           Molality       Moles

	C                 3.240e-01   3.238e-01
	Na                4.003e+00   4.000e+00
	S                 2.001e+00   2.000e+00

----------------------------Description of solution----------------------------

                                       pH  =   3.945      Charge balance
                                       pe  =   4.000      Adjusted to redox equilibrium
       Specific Conductance (uS/cm, 70 oC) = 73075
                          Density (g/cm3)  =   1.19429
                               Volume (L)  =   1.20715
                        Activity of water  =   0.917
                           Ionic strength  =   5.997e+00
                       Mass of water (kg)  =   9.994e-01
                 Total alkalinity (eq/kg)  =  -9.655e-14
                       Total CO2 (mol/kg)  =   3.240e-01
                      Temperature (deg C)  =  70.00
                           Pressure (atm)  = 80.23
                  Electrical balance (eq)  =  -8.824e-12
 Percent error, 100*(Cat-|An|)/(Cat+|An|)  =  -0.00
                               Iterations  =  38
                         Gamma iterations  =   5
                      Osmotic coefficient  =   0.76219
                         Density of water  =   0.98126
                                  Total H  = 1.109551e+02
                                  Total O  = 6.412509e+01

----------------------------Distribution of species----------------------------

                                                    MacInnes  MacInnes
                                MacInnes       Log       Log       Log    mole V
   Species          Molality    Activity  Molality  Activity     Gamma   cm3/mol

   H+              3.221e-04   1.135e-04    -3.492    -3.945    -0.453      0.00
   OH-             2.182e-09   1.354e-09    -8.661    -8.868    -0.207      5.48
   H2O             5.551e+01   9.168e-01     1.744    -0.038     0.000     18.36
C(4)          3.240e-01
   CO2             3.168e-01   8.171e-01    -0.499    -0.088     0.412     23.79
   HCO3-           7.215e-03   3.384e-03    -2.142    -2.471    -0.329     35.76
   CO3-2           4.804e-08   2.351e-09    -7.318    -8.629    -1.310      6.99
Na            4.003e+00
   Na+             4.003e+00   1.776e+00     0.602     0.249    -0.353      1.83
S(6)          2.001e+00
   SO4-2           1.994e+00   7.471e-02     0.300    -1.127    -1.426     26.51
   HSO4-           6.893e-03   2.928e-03    -2.162    -2.533    -0.372     43.58

------------------------------Saturation indices-------------------------------

	Phase               SI   log IAP   log K(343 K,  80 atm)

	Burkeite         -8.71     -9.39   -0.67  Na6CO3(SO4)2
	CO2(g)            1.77     -0.09   -1.86  CO2	 Pressure  79.7 atm, phi 0.742.
	H2O(g)           -0.53     -0.04    0.49  H2O	 Pressure   0.6 atm, phi 0.533.
	Mirabilite       -0.96     -1.01   -0.04  Na2SO4:10H2O
	Nahcolite        -1.57    -12.32  -10.75  NaHCO3
	Natron           -7.45     -8.51   -1.06  Na2CO3:10H2O
	Thenardite       -0.31     -0.63   -0.32  Na2SO4
	Trona            -9.21    -20.53  -11.32  Na3H(CO3)2:2H2O


Reaction step 5.

Using solution 1.	
Using pure phase assemblage 1.	
Using gas phase 1.	
Using temperature 1.	

-----------------------------------Gas phase-----------------------------------

Total pressure: 80.68      atmospheres          (Peng-Robinson calculation)
    Gas volume:   1.00e+00 liters
  Molar volume:   2.69e-01 liters/mole
   P * Vm / RT:  0.73923  (Compressibility Factor Z) 

                                                        Moles in gas
                                            ----------------------------------
Component         log P           P    phi     Initial       Final       Delta

CO2(g)             1.90   7.974e+01  0.776   0.000e+00   3.670e+00   3.670e+00
H2O(g)            -0.03   9.361e-01  0.582   0.000e+00   4.309e-02   4.309e-02

-------------------------------Phase assemblage--------------------------------

                                                      Moles in assemblage
Phase               SI  log IAP  log K(T, P)   Initial       Final       Delta

CO2(g)            1.79    -0.14     -1.93    1.000e+01   6.041e+00  -3.959e+00

-----------------------------Solution composition------------------------------

	Elements           Molality       Moles

	C                 2.893e-01   2.890e-01
	Na                4.004e+00   4.000e+00
	S                 2.002e+00   2.000e+00

----------------------------Description of solution----------------------------

                                       pH  =   4.163      Charge balance
                                       pe  =   4.000      Adjusted to redox equilibrium
       Specific Conductance (uS/cm, 85 oC) = 85540
                          Density (g/cm3)  =   1.18528
                               Volume (L)  =   1.21339
                        Activity of water  =   0.916
                           Ionic strength  =   5.998e+00
                       Mass of water (kg)  =   9.991e-01
                 Total alkalinity (eq/kg)  =  -8.186e-14
                       Total CO2 (mol/kg)  =   2.893e-01
                      Temperature (deg C)  =  85.00
                           Pressure (atm)  = 80.68
                  Electrical balance (eq)  =  -5.279e-12
 Percent error, 100*(Cat-|An|)/(Cat+|An|)  =  -0.00
                               Iterations  =  38
                         Gamma iterations  =   5
                      Osmotic coefficient  =   0.77764
                         Density of water  =   0.97225
                                  Total H  = 1.109263e+02
                                  Total O  = 6.404122e+01

----------------------------Distribution of species----------------------------

                                                    MacInnes  MacInnes
                                MacInnes       Log       Log       Log    mole V
   Species          Molality    Activity  Molality  Activity     Gamma   cm3/mol

   H+              2.293e-04   6.869e-05    -3.640    -4.163    -0.523      0.00
   OH-             6.797e-09   4.424e-09    -8.168    -8.354    -0.186      5.32
   H2O             5.551e+01   9.156e-01     1.744    -0.038     0.000     18.53
C(4)          2.893e-01
   CO2             2.811e-01   7.251e-01    -0.551    -0.140     0.412     22.84
   HCO3-           8.211e-03   4.425e-03    -2.086    -2.354    -0.268     35.23
   CO3-2           8.762e-08   5.061e-09    -7.057    -8.296    -1.238      5.92
Na            4.004e+00
   Na+             4.004e+00   1.706e+00     0.602     0.232    -0.370      1.86
S(6)          2.002e+00
   SO4-2           1.994e+00   8.953e-02     0.300    -1.048    -1.348     25.78
   HSO4-           7.981e-03   3.419e-03    -2.098    -2.466    -0.368     43.88

------------------------------Saturation indices-------------------------------

	Phase               SI   log IAP   log K(358 K,  81 atm)

	Burkeite         -8.33     -9.00   -0.67  Na6CO3(SO4)2
	CO2(g)            1.79     -0.14   -1.93  CO2	 Pressure  79.7 atm, phi 0.776.
	H2O(g)           -0.26     -0.04    0.23  H2O	 Pressure   0.9 atm, phi 0.582.
	Mirabilite       -0.82     -0.97   -0.15  Na2SO4:10H2O
	Nahcolite        -1.48    -12.23  -10.75  NaHCO3
	Natron           -7.16     -8.21   -1.05  Na2CO3:10H2O
	Thenardite       -0.26     -0.58   -0.32  Na2SO4
	Trona            -8.81    -20.14  -11.32  Na3H(CO3)2:2H2O


Reaction step 6.

Using solution 1.	
Using pure phase assemblage 1.	
Using gas phase 1.	
Using temperature 1.	

-----------------------------------Gas phase-----------------------------------

Total pressure: 81.36      atmospheres          (Peng-Robinson calculation)
    Gas volume:   1.00e+00 liters
  Molar volume:   2.93e-01 liters/mole
   P * Vm / RT:  0.77833  (Compressibility Factor Z) 

                                                        Moles in gas
                                            ----------------------------------
Component         log P           P    phi     Initial       Final       Delta

CO2(g)             1.90   7.983e+01  0.804   0.000e+00   3.350e+00   3.350e+00
H2O(g)             0.18   1.530e+00  0.620   0.000e+00   6.420e-02   6.420e-02

-------------------------------Phase assemblage--------------------------------

                                                      Moles in assemblage
Phase               SI  log IAP  log K(T, P)   Initial       Final       Delta

CO2(g)            1.81    -0.18     -1.99    1.000e+01   6.384e+00  -3.616e+00

-----------------------------Solution composition------------------------------

	Elements           Molality       Moles

	C                 2.666e-01   2.663e-01
	Na                4.005e+00   4.000e+00
	S                 2.003e+00   2.000e+00

----------------------------Description of solution----------------------------

                                       pH  =   4.389      Charge balance
                                       pe  =   4.000      Adjusted to redox equilibrium
       Specific Conductance (uS/cm, 100 oC) = 97765
                          Density (g/cm3)  =   1.17515
                               Volume (L)  =   1.22171
                        Activity of water  =   0.914
                           Ionic strength  =   5.999e+00
                       Mass of water (kg)  =   9.987e-01
                 Total alkalinity (eq/kg)  =   2.191e-12
                       Total CO2 (mol/kg)  =   2.666e-01
                      Temperature (deg C)  = 100.00
                           Pressure (atm)  = 81.36
                  Electrical balance (eq)  =  -1.105e-11
 Percent error, 100*(Cat-|An|)/(Cat+|An|)  =  -0.00
                               Iterations  =  38
                         Gamma iterations  =   4
                      Osmotic coefficient  =   0.79342
                         Density of water  =   0.96218
                                  Total H  = 1.108840e+02
                                  Total O  = 6.397459e+01

----------------------------Distribution of species----------------------------

                                                    MacInnes  MacInnes
                                MacInnes       Log       Log       Log    mole V
   Species          Molality    Activity  Molality  Activity     Gamma   cm3/mol

   H+              1.623e-04   4.083e-05    -3.790    -4.389    -0.599      0.00
   OH-             1.957e-08   1.341e-08    -7.708    -7.873    -0.164      5.03
   H2O             5.551e+01   9.142e-01     1.744    -0.039     0.000     18.72
C(4)          2.666e-01
   CO2             2.573e-01   6.639e-01    -0.590    -0.178     0.412     22.14
   HCO3-           9.328e-03   5.794e-03    -2.030    -2.237    -0.207     34.69
   CO3-2           1.540e-07   1.048e-08    -6.813    -7.980    -1.167      4.77
Na            4.005e+00
   Na+             4.005e+00   1.622e+00     0.603     0.210    -0.393      1.91
S(6)          2.003e+00
   SO4-2           1.993e+00   1.073e-01     0.300    -0.969    -1.269     24.97
   HSO4-           9.166e-03   3.971e-03    -2.038    -2.401    -0.363     44.11

------------------------------Saturation indices-------------------------------

	Phase               SI   log IAP   log K(373 K,  81 atm)

	Burkeite         -7.98     -8.66   -0.67  Na6CO3(SO4)2
	CO2(g)            1.81     -0.18   -1.99  CO2	 Pressure  79.8 atm, phi 0.804.
	H2O(g)           -0.02     -0.04   -0.02  H2O	 Pressure   1.5 atm, phi 0.620.
	Mirabilite       -0.41     -0.94   -0.53  Na2SO4:10H2O
	Nahcolite        -1.41    -12.16  -10.75  NaHCO3
	Natron           -6.90     -7.95   -1.05  Na2CO3:10H2O
	Thenardite       -0.23     -0.55   -0.32  Na2SO4
	Trona            -8.47    -19.80  -11.32  Na3H(CO3)2:2H2O


Reaction step 7.

Using solution 1.	
Using pure phase assemblage 1.	
Using gas phase 1.	
Using temperature 1.	

-----------------------------------Gas phase-----------------------------------

Total pressure: 82.35      atmospheres          (Peng-Robinson calculation)
    Gas volume:   1.00e+00 liters
  Molar volume:   3.13e-01 liters/mole
   P * Vm / RT:  0.80799  (Compressibility Factor Z) 

                                                        Moles in gas
                                            ----------------------------------
Component         log P           P    phi     Initial       Final       Delta

CO2(g)             1.90   7.993e+01  0.827   0.000e+00   3.106e+00   3.106e+00
H2O(g)             0.38   2.417e+00  0.651   0.000e+00   9.393e-02   9.393e-02

-------------------------------Phase assemblage--------------------------------

                                                      Moles in assemblage
Phase               SI  log IAP  log K(T, P)   Initial       Final       Delta

CO2(g)            1.82    -0.20     -2.03    1.000e+01   6.642e+00  -3.358e+00

-----------------------------Solution composition------------------------------

	Elements           Molality       Moles

	C                 2.525e-01   2.521e-01
	Na                4.008e+00   4.000e+00
	S                 2.004e+00   2.000e+00

----------------------------Description of solution----------------------------

                                       pH  =   4.622      Charge balance
                                       pe  =   4.000      Adjusted to redox equilibrium
       Specific Conductance (uS/cm, 115 oC) = 111749
                          Density (g/cm3)  =   1.15986
                               Volume (L)  =   1.23622
                        Activity of water  =   0.913
                           Ionic strength  =   6.001e+00
                       Mass of water (kg)  =   9.981e-01
                 Total alkalinity (eq/kg)  =   3.112e-12
                       Total CO2 (mol/kg)  =   2.525e-01
                      Temperature (deg C)  = 115.00
                           Pressure (atm)  = 82.35
                  Electrical balance (eq)  =  -1.661e-11
 Percent error, 100*(Cat-|An|)/(Cat+|An|)  =  -0.00
                               Iterations  =  82
                         Gamma iterations  =   4
                      Osmotic coefficient  =   0.80998
                         Density of water  =   0.94708
                                  Total H  = 1.108246e+02
                                  Total O  = 6.391641e+01

----------------------------Distribution of species----------------------------

                                                    MacInnes  MacInnes
                                MacInnes       Log       Log       Log    mole V
   Species          Molality    Activity  Molality  Activity     Gamma   cm3/mol

   H+              1.138e-04   2.387e-05    -3.944    -4.622    -0.678      0.00
   OH-             5.252e-08   3.802e-08    -7.280    -7.420    -0.140      4.52
   H2O             5.551e+01   9.126e-01     1.744    -0.040     0.000     19.02
C(4)          2.525e-01
   CO2             2.419e-01   6.244e-01    -0.616    -0.205     0.412     21.64
   HCO3-           1.060e-02   7.621e-03    -1.975    -2.118    -0.143     34.04
   CO3-2           2.615e-07   2.110e-08    -6.582    -7.676    -1.093      3.22
Na            4.008e+00
   Na+             4.008e+00   1.532e+00     0.603     0.185    -0.418      1.96
S(6)          2.004e+00
   SO4-2           1.993e+00   1.295e-01     0.300    -0.888    -1.187     23.84
   HSO4-           1.049e-02   4.613e-03    -1.979    -2.336    -0.357     44.22

------------------------------Saturation indices-------------------------------

	Phase               SI   log IAP   log K(388 K,  82 atm)

	Burkeite         -7.67     -8.34   -0.67  Na6CO3(SO4)2
	CO2(g)            1.82     -0.20   -2.03  CO2	 Pressure  79.9 atm, phi 0.827.
	H2O(g)            0.20     -0.04   -0.24  H2O	 Pressure   2.4 atm, phi 0.651.
	Mirabilite        0.30     -0.91   -1.21  Na2SO4:10H2O
	Nahcolite        -1.36    -12.11  -10.75  NaHCO3
	Natron           -6.66     -7.70   -1.04  Na2CO3:10H2O
	Thenardite       -0.19     -0.52   -0.32  Na2SO4
	Trona            -8.17    -19.50  -11.32  Na3H(CO3)2:2H2O


Reaction step 8.

Using solution 1.	
Using pure phase assemblage 1.	
Using gas phase 1.	
Using temperature 1.	

-----------------------------------Gas phase-----------------------------------

Total pressure: 83.73      atmospheres          (Peng-Robinson calculation)
    Gas volume:   1.00e+00 liters
  Molar volume:   3.28e-01 liters/mole
   P * Vm / RT:  0.83061  (Compressibility Factor Z) 

                                                        Moles in gas
                                            ----------------------------------
Component         log P           P    phi     Initial       Final       Delta

CO2(g)             1.90   8.004e+01  0.848   0.000e+00   2.913e+00   2.913e+00
H2O(g)             0.57   3.697e+00  0.676   0.000e+00   1.346e-01   1.346e-01

-------------------------------Phase assemblage--------------------------------

                                                      Moles in assemblage
Phase               SI  log IAP  log K(T, P)   Initial       Final       Delta

CO2(g)            1.83    -0.22     -2.05    1.000e+01   6.843e+00  -3.157e+00

-----------------------------Solution composition------------------------------

	Elements           Molality       Moles

	C                 2.448e-01   2.442e-01
	Na                4.011e+00   4.000e+00
	S                 2.005e+00   2.000e+00

----------------------------Description of solution----------------------------

                                       pH  =   4.857      Charge balance
                                       pe  =   4.000      Adjusted to redox equilibrium
       Specific Conductance (uS/cm, 130 oC) = 126732
                          Density (g/cm3)  =   1.14678
                               Volume (L)  =   1.24904
                        Activity of water  =   0.911
                           Ionic strength  =   6.004e+00
                       Mass of water (kg)  =   9.974e-01
                 Total alkalinity (eq/kg)  =  -2.001e-11
                       Total CO2 (mol/kg)  =   2.448e-01
                      Temperature (deg C)  = 130.00
                           Pressure (atm)  = 83.73
                  Electrical balance (eq)  =   1.060e-10
 Percent error, 100*(Cat-|An|)/(Cat+|An|)  =   0.00
                               Iterations  =  38
                         Gamma iterations  =   4
                      Osmotic coefficient  =   0.82454
                         Density of water  =   0.93484
                                  Total H  = 1.107433e+02
                                  Total O  = 6.385996e+01

----------------------------Distribution of species----------------------------

                                                    MacInnes  MacInnes
                                MacInnes       Log       Log       Log    mole V
   Species          Molality    Activity  Molality  Activity     Gamma   cm3/mol

   H+              8.065e-05   1.391e-05    -4.093    -4.857    -0.763      0.00
   OH-             1.316e-07   1.004e-07    -6.881    -6.998    -0.118      3.94
   H2O             5.551e+01   9.112e-01     1.744    -0.040     0.000     19.27
C(4)          2.448e-01
   CO2             2.328e-01   6.010e-01    -0.633    -0.221     0.412     21.28
   HCO3-           1.201e-02   9.959e-03    -1.921    -2.002    -0.081     33.40
   CO3-2           4.312e-07   4.050e-08    -6.365    -7.393    -1.027      1.95
Na            4.011e+00
   Na+             4.011e+00   1.429e+00     0.603     0.155    -0.448      2.07
S(6)          2.005e+00
   SO4-2           1.993e+00   1.537e-01     0.300    -0.813    -1.113     23.11
   HSO4-           1.193e-02   5.308e-03    -1.923    -2.275    -0.352     44.37

------------------------------Saturation indices-------------------------------

	Phase               SI   log IAP   log K(403 K,  84 atm)

	Burkeite         -7.42     -8.09   -0.67  Na6CO3(SO4)2
	CO2(g)            1.83     -0.22   -2.05  CO2	 Pressure  80.0 atm, phi 0.848.
	H2O(g)            0.40     -0.04   -0.44  H2O	 Pressure   3.7 atm, phi 0.676.
	Mirabilite        1.29     -0.91   -2.19  Na2SO4:10H2O
	Nahcolite        -1.35    -12.09  -10.75  NaHCO3
	Natron           -6.45     -7.49   -1.04  Na2CO3:10H2O
	Thenardite       -0.18     -0.50   -0.32  Na2SO4
	Trona            -7.94    -19.26  -11.32  Na3H(CO3)2:2H2O


Reaction step 9.

Using solution 1.	
Using pure phase assemblage 1.	
Using gas phase 1.	
Using temperature 1.	

-----------------------------------Gas phase-----------------------------------

Total pressure: 85.63      atmospheres          (Peng-Robinson calculation)
    Gas volume:   1.00e+00 liters
  Molar volume:   3.40e-01 liters/mole
   P * Vm / RT:  0.84761  (Compressibility Factor Z) 

                                                        Moles in gas
                                            ----------------------------------
Component         log P           P    phi     Initial       Final       Delta

CO2(g)             1.90   8.014e+01  0.865   0.000e+00   2.756e+00   2.756e+00
H2O(g)             0.74   5.490e+00  0.694   0.000e+00   1.888e-01   1.888e-01

-------------------------------Phase assemblage--------------------------------

                                                      Moles in assemblage
Phase               SI  log IAP  log K(T, P)   Initial       Final       Delta

CO2(g)            1.84    -0.23     -2.07    1.000e+01   7.003e+00  -2.997e+00

-----------------------------Solution composition------------------------------

	Elements           Molality       Moles

	C                 2.421e-01   2.412e-01
	Na                4.015e+00   4.000e+00
	S                 2.007e+00   2.000e+00

----------------------------Description of solution----------------------------

                                       pH  =   5.093      Charge balance
                                       pe  =   4.000      Adjusted to redox equilibrium
       Specific Conductance (uS/cm, 145 oC) = 144921
                          Density (g/cm3)  =   1.13197
                               Volume (L)  =   1.26428
                        Activity of water  =   0.910
                           Ionic strength  =   6.008e+00
                       Mass of water (kg)  =   9.964e-01
                 Total alkalinity (eq/kg)  =  -7.950e-12
                       Total CO2 (mol/kg)  =   2.421e-01
                      Temperature (deg C)  = 145.00
                           Pressure (atm)  = 85.63
                  Electrical balance (eq)  =   4.480e-11
 Percent error, 100*(Cat-|An|)/(Cat+|An|)  =   0.00
                               Iterations  =  35
                         Gamma iterations  =   4
                      Osmotic coefficient  =   0.83776
                         Density of water  =   0.92163
                                  Total H  = 1.106349e+02
                                  Total O  = 6.379988e+01

----------------------------Distribution of species----------------------------

                                                    MacInnes  MacInnes
                                MacInnes       Log       Log       Log    mole V
   Species          Molality    Activity  Molality  Activity     Gamma   cm3/mol

   H+              5.746e-05   8.077e-06    -4.241    -5.093    -0.852      0.00
   OH-             3.099e-07   2.485e-07    -6.509    -6.605    -0.096      3.20
   H2O             5.551e+01   9.098e-01     1.744    -0.041     0.000     19.55
C(4)          2.421e-01
   CO2             2.285e-01   5.904e-01    -0.641    -0.229     0.412     21.08
   HCO3-           1.357e-02   1.297e-02    -1.868    -1.887    -0.020     32.70
   CO3-2           6.918e-07   7.480e-08    -6.160    -7.126    -0.966      0.68
Na            4.015e+00
   Na+             4.015e+00   1.322e+00     0.604     0.121    -0.482      2.24
S(6)          2.007e+00
   SO4-2           1.994e+00   1.804e-01     0.300    -0.744    -1.044     22.60
   HSO4-           1.351e-02   6.074e-03    -1.869    -2.217    -0.347     44.51

------------------------------Saturation indices-------------------------------

	Phase               SI   log IAP   log K(418 K,  86 atm)

	Burkeite         -7.21     -7.89   -0.67  Na6CO3(SO4)2
	CO2(g)            1.84     -0.23   -2.07  CO2	 Pressure  80.1 atm, phi 0.865.
	H2O(g)            0.58     -0.04   -0.62  H2O	 Pressure   5.5 atm, phi 0.694.
	Mirabilite        2.57     -0.91   -3.48  Na2SO4:10H2O
	Nahcolite        -1.35    -12.10  -10.75  NaHCO3
	Natron           -6.25     -7.29   -1.04  Na2CO3:10H2O
	Thenardite       -0.18     -0.50   -0.32  Na2SO4
	Trona            -7.74    -19.06  -11.32  Na3H(CO3)2:2H2O


Reaction step 10.

Using solution 1.	
Using pure phase assemblage 1.	
Using gas phase 1.	
Using temperature 1.	

-----------------------------------Gas phase-----------------------------------

Total pressure: 88.16      atmospheres          (Peng-Robinson calculation)
    Gas volume:   1.00e+00 liters
  Molar volume:   3.47e-01 liters/mole
   P * Vm / RT:  0.85985  (Compressibility Factor Z) 

                                                        Moles in gas
                                            ----------------------------------
Component         log P           P    phi     Initial       Final       Delta

CO2(g)             1.90   8.023e+01  0.880   0.000e+00   2.625e+00   2.625e+00
H2O(g)             0.90   7.935e+00  0.706   0.000e+00   2.596e-01   2.596e-01

-------------------------------Phase assemblage--------------------------------

                                                      Moles in assemblage
Phase               SI  log IAP  log K(T, P)   Initial       Final       Delta

CO2(g)            1.85    -0.23     -2.08    1.000e+01   7.133e+00  -2.867e+00

-----------------------------Solution composition------------------------------

	Elements           Molality       Moles

	C                 2.436e-01   2.424e-01
	Na                4.020e+00   4.000e+00
	S                 2.010e+00   2.000e+00

----------------------------Description of solution----------------------------

                                       pH  =   5.330      Charge balance
                                       pe  =   4.000      Adjusted to redox equilibrium
       Specific Conductance (uS/cm, 160 oC) = 166620
                          Density (g/cm3)  =   1.11523
                               Volume (L)  =   1.28220
                        Activity of water  =   0.908
                           Ionic strength  =   6.015e+00
                       Mass of water (kg)  =   9.950e-01
                 Total alkalinity (eq/kg)  =  -3.162e-12
                       Total CO2 (mol/kg)  =   2.436e-01
                      Temperature (deg C)  = 160.00
                           Pressure (atm)  = 88.16
                  Electrical balance (eq)  =   1.923e-11
 Percent error, 100*(Cat-|An|)/(Cat+|An|)  =   0.00
                               Iterations  =  37
                         Gamma iterations  =   4
                      Osmotic coefficient  =   0.84931
                         Density of water  =   0.90745
                                  Total H  = 1.104931e+02
                                  Total O  = 6.373139e+01

----------------------------Distribution of species----------------------------

                                                    MacInnes  MacInnes
                                MacInnes       Log       Log       Log    mole V
   Species          Molality    Activity  Molality  Activity     Gamma   cm3/mol

   H+              4.127e-05   4.683e-06    -4.384    -5.330    -0.945      0.00
   OH-             6.885e-07   5.789e-07    -6.162    -6.237    -0.075      2.27
   H2O             5.551e+01   9.085e-01     1.744    -0.042     0.000     19.85
C(4)          2.436e-01
   CO2             2.283e-01   5.904e-01    -0.641    -0.229     0.413     21.01
   HCO3-           1.528e-02   1.679e-02    -1.816    -1.775     0.041     31.89
   CO3-2           1.084e-06   1.330e-07    -5.965    -6.876    -0.911     -0.57
Na            4.020e+00
   Na+             4.020e+00   1.212e+00     0.604     0.084    -0.521      2.47
S(6)          2.010e+00
   SO4-2           1.995e+00   2.088e-01     0.300    -0.680    -0.980     22.38
   HSO4-           1.525e-02   6.903e-03    -1.817    -2.161    -0.344     44.66

------------------------------Saturation indices-------------------------------

	Phase               SI   log IAP   log K(433 K,  88 atm)

	Burkeite         -7.06     -7.74   -0.67  Na6CO3(SO4)2
	CO2(g)            1.85     -0.23   -2.08  CO2	 Pressure  80.2 atm, phi 0.880.
	H2O(g)            0.75     -0.04   -0.79  H2O	 Pressure   7.9 atm, phi 0.706.
	Mirabilite        4.15     -0.93   -5.08  Na2SO4:10H2O
	Nahcolite        -1.38    -12.12  -10.74  NaHCO3
	Natron           -6.08     -7.13   -1.04  Na2CO3:10H2O
	Thenardite       -0.19     -0.51   -0.32  Na2SO4
	Trona            -7.59    -18.91  -11.32  Na3H(CO3)2:2H2O


------------------
End of simulation.
------------------

------------------------------------
Reading input data for simulation 3.
------------------------------------

------------------------------
End of Run after 0.21 Seconds.
------------------------------

