WARNING: Database file from DATABASE keyword is used; command line argument ignored.
   Input file: CO2_conc_PR_IS
  Output file: CO2_conc_PR_IS.out
Database file: ../database/phreeqc.dat

------------------
Reading data base.
------------------

	SOLUTION_MASTER_SPECIES
	SOLUTION_SPECIES
	PHASES
	EXCHANGE_MASTER_SPECIES
	EXCHANGE_SPECIES
	SURFACE_MASTER_SPECIES
	SURFACE_SPECIES
	MEAN_GAMMAS
	RATES
	END
------------------------------------
Reading input data for simulation 1.
------------------------------------

	DATABASE ../database/phreeqc.dat
	SELECTED_OUTPUT 101
	    file                 CO2_conc_PR_IS_101.sel
	USER_PUNCH 101
	    headings Mu SC
	    start
	10 PUNCH STR_F$(MU, 20, 12)
	20 PUNCH STR_F$(SC, 20, 10)
	    end
	SOLUTION 1
	SELECTED_OUTPUT
	 reset false
	 file CO2_conc_PR_IS.sel
	USER_PUNCH
	  1 sc$ = chr$(59)
	 10 for i = 1.1 to 520 step 20
	 20   punch 'SOLUTION 1' + sc$ + ' -temp 25' + sc$ + ' pH 3 charge' + EOL$ + 'C(4) 1 CO2(g) ' + str$(log10(i)) + sc$ + '-pressure ' + str$(i) + EOL$ + 'END' + EOL$
	 30 next i
	END
-------------------------------------------
Beginning of initial solution calculations.
-------------------------------------------

Initial solution 1.	

WARNING: USER_PUNCH: Headings count does not match number of calls to PUNCH.

-----------------------------Solution composition------------------------------

	Elements           Molality       Moles

	Pure water     

----------------------------Description of solution----------------------------

                                       pH  =   7.000    
                                       pe  =   4.000    
      Specific Conductance (µS/cm,  25°C)  = 0
                          Density (g/cm³)  =   0.99704
                               Volume (L)  =   1.00297
                        Viscosity (mPa s)  =   0.89002
                        Activity of water  =   1.000
                 Ionic strength (mol/kgw)  =   1.007e-07
                       Mass of water (kg)  =   1.000e+00
                 Total alkalinity (eq/kg)  =   1.217e-09
                         Temperature (°C)  =  25.00
                  Electrical balance (eq)  =  -1.217e-09
 Percent error, 100*(Cat-|An|)/(Cat+|An|)  =  -0.60
                               Iterations  =   0
                                  Total H  = 1.110124e+02
                                  Total O  = 5.550622e+01

----------------------------Distribution of species----------------------------

                                               Log       Log       Log    mole V
   Species          Molality    Activity  Molality  Activity     Gamma   cm³/mol

   OH-             1.013e-07   1.012e-07    -6.995    -6.995    -0.000     -4.14
   H+              1.001e-07   1.000e-07    -7.000    -7.000    -0.000      0.00
   H2O             5.551e+01   1.000e+00     1.744     0.000     0.000     18.07
H(0)          1.416e-25
   H2              7.079e-26   7.079e-26   -25.150   -25.150     0.000     28.61
O(0)          0.000e+00
   O2              0.000e+00   0.000e+00   -42.080   -42.080     0.000     30.40

------------------------------Saturation indices-------------------------------

  Phase               SI** log IAP   log K(298 K,   1 atm)

  H2(g)           -22.05    -25.15   -3.10  H2
  H2O(g)           -1.50      0.00    1.50  H2O
  O2(g)           -39.19    -42.08   -2.89  O2

**For a gas, SI = log10(fugacity). Fugacity = pressure * phi / 1 atm.
  For ideal gases, phi = 1.

------------------
End of simulation.
------------------

------------------------------------
Reading input data for simulation 2.
------------------------------------

	SELECTED_OUTPUT
	 active false
	USER_GRAPH
	 -chart_title "Using: Initial Equilibrations"
	 -plot_csv_file co2.dat
	 -axis_titles "Pressure / atm" "CO2 / (mol/kgw)"
	 -axis_scale x_axis 0 500
	 -axis_scale y_axis 0 2
	 -initial_solutions true
	 10 x = PR_P("CO2(g)")
	 20 graph_x x # tot("Na")
	 30 graph_y tot("C(4)")
	 -end

	Reading data from CO2_conc_PR_IS.sel ...
	SOLUTION 1
	 temp 25
	 pH 3 charge
	C(4) 1 CO2(g)   4.1393e-02
	pressure   1.1000e+00
	END
-------------------------------------------
Beginning of initial solution calculations.
-------------------------------------------

Initial solution 1.	

-----------------------------Solution composition------------------------------

	Elements           Molality       Moles

	C(4)              3.738e-02   3.738e-02  Equilibrium with CO2(g)

----------------------------Description of solution----------------------------

                                       pH  =   3.891      Charge balance
                                       pe  =   4.000    
      Specific Conductance (µS/cm,  25°C)  = 50
                          Density (g/cm³)  =   0.99741
                               Volume (L)  =   1.00425
                        Viscosity (mPa s)  =   0.89286
                        Activity of water  =   0.999
                 Ionic strength (mol/kgw)  =   1.303e-04
                       Mass of water (kg)  =   1.000e+00
                 Total alkalinity (eq/kg)  =  -9.779e-14
                       Total CO2 (mol/kg)  =   3.738e-02
                         Temperature (°C)  =  25.00
                           Pressure (atm)  =  1.10
                  Electrical balance (eq)  =   9.779e-14
 Percent error, 100*(Cat-|An|)/(Cat+|An|)  =   0.00
                               Iterations  =   5
                                  Total H  = 1.110127e+02
                                  Total O  = 5.558110e+01

----------------------------Distribution of species----------------------------

                                               Log       Log       Log    mole V
   Species          Molality    Activity  Molality  Activity     Gamma   cm³/mol

   H+              1.303e-04   1.286e-04    -3.885    -3.891    -0.006      0.00
   OH-             7.971e-11   7.866e-11   -10.098   -10.104    -0.006     -4.13
   H2O             5.551e+01   9.994e-01     1.744    -0.000     0.000     18.07
C(4)          3.738e-02
   CO2             3.720e-02   3.720e-02    -1.429    -1.429     0.000     34.43
   HCO3-           1.303e-04   1.286e-04    -3.885    -3.891    -0.006     24.56
   (CO2)2          2.540e-05   2.540e-05    -4.595    -4.595     0.000     68.87
   CO3-2           4.942e-11   4.689e-11   -10.306   -10.329    -0.023     -4.01
H(0)          2.341e-19
   H2              1.171e-19   1.171e-19   -18.932   -18.932     0.000     28.61
O(0)          0.000e+00
   O2              0.000e+00   0.000e+00   -54.518   -54.518     0.000     30.40

------------------------------Saturation indices-------------------------------

  Phase               SI** log IAP   log K(298 K,   1 atm)

  CO2(g)            0.04     -1.43   -1.47  CO2	 Pressure   1.1 atm, phi 0.994
  H2(g)           -15.83    -18.93   -3.10  H2
  H2O(g)           -1.50     -0.00    1.50  H2O
  O2(g)           -51.63    -54.52   -2.89  O2

**For a gas, SI = log10(fugacity). Fugacity = pressure * phi / 1 atm.
  For ideal gases, phi = 1.

------------------
End of simulation.
------------------

------------------------------------
Reading input data for simulation 3.
------------------------------------

		SOLUTION 1
	 temp 25
	 pH 3 charge
	C(4) 1 CO2(g)   1.3243e+00
	pressure   2.1100e+01
	END
-------------------------------------------
Beginning of initial solution calculations.
-------------------------------------------

Initial solution 1.	

-----------------------------Solution composition------------------------------

	Elements           Molality       Moles

	C(4)              6.332e-01   6.332e-01  Equilibrium with CO2(g)

----------------------------Description of solution----------------------------

                                       pH  =   3.277      Charge balance
                                       pe  =   4.000    
      Specific Conductance (µS/cm,  25°C)  = 182
                          Density (g/cm³)  =   1.00394
                               Volume (L)  =   1.02385
                        Viscosity (mPa s)  =   0.93405
                        Activity of water  =   0.989
                 Ionic strength (mol/kgw)  =   5.416e-04
                       Mass of water (kg)  =   1.000e+00
                 Total alkalinity (eq/kg)  =  -5.577e-15
                       Total CO2 (mol/kg)  =   6.332e-01
                         Temperature (°C)  =  25.00
                           Pressure (atm)  = 21.10
                  Electrical balance (eq)  =   5.577e-15
 Percent error, 100*(Cat-|An|)/(Cat+|An|)  =   0.00
                               Iterations  =   6
                                  Total H  = 1.110135e+02
                                  Total O  = 5.677323e+01

----------------------------Distribution of species----------------------------

                                               Log       Log       Log    mole V
   Species          Molality    Activity  Molality  Activity     Gamma   cm³/mol

   H+              5.416e-04   5.279e-04    -3.266    -3.277    -0.011      0.00
   OH-             1.984e-11   1.931e-11   -10.703   -10.714    -0.012     -4.04
   H2O             5.551e+01   9.893e-01     1.744    -0.005     0.000     18.05
C(4)          6.332e-01
   CO2             6.186e-01   6.187e-01    -0.209    -0.209     0.000     34.42
   (CO2)2          7.025e-03   7.026e-03    -2.153    -2.153     0.000     68.85
   HCO3-           5.416e-04   5.276e-04    -3.266    -3.278    -0.011     24.64
   CO3-2           5.328e-11   4.797e-11   -10.273   -10.319    -0.046     -3.77
H(0)          3.854e-18
   H2              1.927e-18   1.927e-18   -17.715   -17.715     0.000     28.60
O(0)          0.000e+00
   O2              0.000e+00   0.000e+00   -56.978   -56.978     0.000     30.37

------------------------------Saturation indices-------------------------------

  Phase               SI** log IAP   log K(298 K,  21 atm)

  CO2(g)            1.27     -0.21   -1.48  CO2	 Pressure  21.1 atm, phi 0.886
  H2(g)           -14.60    -17.72   -3.11  H2
  H2O(g)           -1.50     -0.00    1.50  H2O
  O2(g)           -54.07    -56.98   -2.90  O2

**For a gas, SI = log10(fugacity). Fugacity = pressure * phi / 1 atm.
  For ideal gases, phi = 1.

------------------
End of simulation.
------------------

------------------------------------
Reading input data for simulation 4.
------------------------------------

		SOLUTION 1
	 temp 25
	 pH 3 charge
	C(4) 1 CO2(g)   1.6138e+00
	pressure   4.1100e+01
	END
-------------------------------------------
Beginning of initial solution calculations.
-------------------------------------------

Initial solution 1.	

-----------------------------Solution composition------------------------------

	Elements           Molality       Moles

	C(4)              1.075e+00   1.075e+00  Equilibrium with CO2(g)

----------------------------Description of solution----------------------------

                                       pH  =   3.162      Charge balance
                                       pe  =   4.000    
      Specific Conductance (µS/cm,  25°C)  = 217
                          Density (g/cm³)  =   1.00885
                               Volume (L)  =   1.03815
                        Viscosity (mPa s)  =   0.96395
                        Activity of water  =   0.982
                 Ionic strength (mol/kgw)  =   7.084e-04
                       Mass of water (kg)  =   1.000e+00
                 Total alkalinity (eq/kg)  =   8.552e-14
                       Total CO2 (mol/kg)  =   1.075e+00
                         Temperature (°C)  =  25.00
                           Pressure (atm)  = 41.10
                  Electrical balance (eq)  =  -8.552e-14
 Percent error, 100*(Cat-|An|)/(Cat+|An|)  =  -0.00
                               Iterations  =   6
                                  Total H  = 1.110139e+02
                                  Total O  = 5.765743e+01

----------------------------Distribution of species----------------------------

                                               Log       Log       Log    mole V
   Species          Molality    Activity  Molality  Activity     Gamma   cm³/mol

   H+              7.084e-04   6.882e-04    -3.150    -3.162    -0.013      0.00
   OH-             1.543e-11   1.497e-11   -10.812   -10.825    -0.013     -3.96
   H2O             5.551e+01   9.820e-01     1.744    -0.008     0.000     18.04
C(4)          1.075e+00
   CO2             1.035e+00   1.035e+00     0.015     0.015     0.000     34.41
   (CO2)2          1.967e-02   1.967e-02    -1.706    -1.706     0.000     68.83
   HCO3-           7.084e-04   6.876e-04    -3.150    -3.163    -0.013     24.71
   CO3-2           5.529e-11   4.908e-11   -10.257   -10.309    -0.052     -3.57
H(0)          6.398e-18
   H2              3.199e-18   3.200e-18   -17.495   -17.495     0.000     28.59
O(0)          0.000e+00
   O2              0.000e+00   0.000e+00   -57.443   -57.443     0.000     30.34

------------------------------Saturation indices-------------------------------

  Phase               SI** log IAP   log K(298 K,  41 atm)

  CO2(g)            1.51      0.02   -1.49  CO2	 Pressure  41.1 atm, phi 0.783
  H2(g)           -14.37    -17.49   -3.12  H2
  H2O(g)           -1.50     -0.01    1.49  H2O
  O2(g)           -54.53    -57.44   -2.91  O2

**For a gas, SI = log10(fugacity). Fugacity = pressure * phi / 1 atm.
  For ideal gases, phi = 1.

------------------
End of simulation.
------------------

------------------------------------
Reading input data for simulation 5.
------------------------------------

		SOLUTION 1
	 temp 25
	 pH 3 charge
	C(4) 1 CO2(g)   1.7860e+00
	pressure   6.1100e+01
	END
-------------------------------------------
Beginning of initial solution calculations.
-------------------------------------------

Initial solution 1.	

-----------------------------Solution composition------------------------------

	Elements           Molality       Moles

	C(4)              1.362e+00   1.362e+00  Equilibrium with CO2(g)

----------------------------Description of solution----------------------------

                                       pH  =   3.109      Charge balance
                                       pe  =   4.000    
      Specific Conductance (µS/cm,  25°C)  = 232
                          Density (g/cm³)  =   1.01227
                               Volume (L)  =   1.04712
                        Viscosity (mPa s)  =   0.98312
                        Activity of water  =   0.977
                 Ionic strength (mol/kgw)  =   8.022e-04
                       Mass of water (kg)  =   1.000e+00
                 Total alkalinity (eq/kg)  =  -6.558e-16
                       Total CO2 (mol/kg)  =   1.362e+00
                         Temperature (°C)  =  25.00
                           Pressure (atm)  = 61.10
                  Electrical balance (eq)  =   6.558e-16
 Percent error, 100*(Cat-|An|)/(Cat+|An|)  =   0.00
                               Iterations  =   7
                                  Total H  = 1.110140e+02
                                  Total O  = 5.823158e+01

----------------------------Distribution of species----------------------------

                                               Log       Log       Log    mole V
   Species          Molality    Activity  Molality  Activity     Gamma   cm³/mol

   H+              8.022e-04   7.780e-04    -3.096    -3.109    -0.013      0.00
   OH-             1.386e-11   1.342e-11   -10.858   -10.872    -0.014     -3.89
   H2O             5.551e+01   9.774e-01     1.744    -0.010     0.000     18.02
C(4)          1.362e+00
   CO2             1.299e+00   1.300e+00     0.114     0.114     0.000     34.40
   (CO2)2          3.100e-02   3.100e-02    -1.509    -1.509     0.000     68.81
   HCO3-           8.022e-04   7.772e-04    -3.096    -3.109    -0.014     24.78
   CO3-2           5.697e-11   5.021e-11   -10.244   -10.299    -0.055     -3.38
H(0)          7.987e-18
   H2              3.994e-18   3.994e-18   -17.399   -17.399     0.000     28.58
O(0)          0.000e+00
   O2              0.000e+00   0.000e+00   -57.658   -57.658     0.000     30.31

------------------------------Saturation indices-------------------------------

  Phase               SI** log IAP   log K(298 K,  61 atm)

  CO2(g)            1.62      0.11   -1.50  CO2	 Pressure  61.1 atm, phi 0.680
  H2(g)           -14.27    -17.40   -3.13  H2
  H2O(g)           -1.49     -0.01    1.48  H2O
  O2(g)           -54.73    -57.66   -2.92  O2

**For a gas, SI = log10(fugacity). Fugacity = pressure * phi / 1 atm.
  For ideal gases, phi = 1.

------------------
End of simulation.
------------------

------------------------------------
Reading input data for simulation 6.
------------------------------------

		SOLUTION 1
	 temp 25
	 pH 3 charge
	C(4) 1 CO2(g)   1.9090e+00
	pressure   8.1100e+01
	END
-------------------------------------------
Beginning of initial solution calculations.
-------------------------------------------

Initial solution 1.	

-----------------------------Solution composition------------------------------

	Elements           Molality       Moles

	C(4)              1.417e+00   1.417e+00  Equilibrium with CO2(g)

----------------------------Description of solution----------------------------

                                       pH  =   3.096      Charge balance
                                       pe  =   4.000    
      Specific Conductance (µS/cm,  25°C)  = 236
                          Density (g/cm³)  =   1.01363
                               Volume (L)  =   1.04808
                        Viscosity (mPa s)  =   0.98657
                        Activity of water  =   0.976
                 Ionic strength (mol/kgw)  =   8.265e-04
                       Mass of water (kg)  =   1.000e+00
                 Total alkalinity (eq/kg)  =  -1.222e-15
                       Total CO2 (mol/kg)  =   1.417e+00
                         Temperature (°C)  =  25.00
                           Pressure (atm)  = 81.10
                  Electrical balance (eq)  =   1.222e-15
 Percent error, 100*(Cat-|An|)/(Cat+|An|)  =   0.00
                               Iterations  =   7
                                  Total H  = 1.110141e+02
                                  Total O  = 5.834059e+01

----------------------------Distribution of species----------------------------

                                               Log       Log       Log    mole V
   Species          Molality    Activity  Molality  Activity     Gamma   cm³/mol

   H+              8.265e-04   8.012e-04    -3.083    -3.096    -0.013      0.00
   OH-             1.369e-11   1.325e-11   -10.864   -10.878    -0.014     -3.82
   H2O             5.551e+01   9.765e-01     1.744    -0.010     0.000     18.00
C(4)          1.417e+00
   CO2             1.349e+00   1.349e+00     0.130     0.130     0.000     34.40
   (CO2)2          3.341e-02   3.342e-02    -1.476    -1.476     0.000     68.79
   HCO3-           8.265e-04   8.004e-04    -3.083    -3.097    -0.014     24.84
   CO3-2           5.837e-11   5.135e-11   -10.234   -10.289    -0.056     -3.20
H(0)          8.276e-18
   H2              4.138e-18   4.139e-18   -17.383   -17.383     0.000     28.57
O(0)          0.000e+00
   O2              0.000e+00   0.000e+00   -57.708   -57.708     0.000     30.28

------------------------------Saturation indices-------------------------------

  Phase               SI** log IAP   log K(298 K,  81 atm)

  CO2(g)            1.65      0.13   -1.52  CO2	 Pressure  81.1 atm, phi 0.547
  H2(g)           -14.24    -17.38   -3.14  H2
  H2O(g)           -1.49     -0.01    1.48  H2O
  O2(g)           -54.77    -57.71   -2.94  O2

**For a gas, SI = log10(fugacity). Fugacity = pressure * phi / 1 atm.
  For ideal gases, phi = 1.

------------------
End of simulation.
------------------

------------------------------------
Reading input data for simulation 7.
------------------------------------

		SOLUTION 1
	 temp 25
	 pH 3 charge
	C(4) 1 CO2(g)   2.0048e+00
	pressure   1.0110e+02
	END
-------------------------------------------
Beginning of initial solution calculations.
-------------------------------------------

Initial solution 1.	

-----------------------------Solution composition------------------------------

	Elements           Molality       Moles

	C(4)              1.446e+00   1.446e+00  Equilibrium with CO2(g)

----------------------------Description of solution----------------------------

                                       pH  =   3.087      Charge balance
                                       pe  =   4.000    
      Specific Conductance (µS/cm,  25°C)  = 240
                          Density (g/cm³)  =   1.01476
                               Volume (L)  =   1.04818
                        Viscosity (mPa s)  =   0.98831
                        Activity of water  =   0.976
                 Ionic strength (mol/kgw)  =   8.438e-04
                       Mass of water (kg)  =   1.000e+00
                 Total alkalinity (eq/kg)  =  -1.790e-15
                       Total CO2 (mol/kg)  =   1.446e+00
                         Temperature (°C)  =  25.00
                           Pressure (atm)  = 101.10
                  Electrical balance (eq)  =   1.790e-15
 Percent error, 100*(Cat-|An|)/(Cat+|An|)  =   0.00
                               Iterations  =   7
                                  Total H  = 1.110141e+02
                                  Total O  = 5.839848e+01

----------------------------Distribution of species----------------------------

                                               Log       Log       Log    mole V
   Species          Molality    Activity  Molality  Activity     Gamma   cm³/mol

   H+              8.438e-04   8.178e-04    -3.074    -3.087    -0.014      0.00
   OH-             1.364e-11   1.320e-11   -10.865   -10.879    -0.014     -3.75
   H2O             5.551e+01   9.760e-01     1.744    -0.011     0.000     17.99
C(4)          1.446e+00
   CO2             1.375e+00   1.376e+00     0.138     0.138     0.000     34.39
   (CO2)2          3.473e-02   3.473e-02    -1.459    -1.459     0.000     68.77
   HCO3-           8.438e-04   8.170e-04    -3.074    -3.088    -0.014     24.91
   CO3-2           5.976e-11   5.252e-11   -10.224   -10.280    -0.056     -3.02
H(0)          8.424e-18
   H2              4.212e-18   4.213e-18   -17.376   -17.375     0.000     28.56
O(0)          0.000e+00
   O2              0.000e+00   0.000e+00   -57.742   -57.742     0.000     30.26

------------------------------Saturation indices-------------------------------

  Phase               SI** log IAP   log K(298 K, 101 atm)

  CO2(g)            1.67      0.14   -1.53  CO2	 Pressure 101.1 atm, phi 0.460
  H2(g)           -14.22    -17.38   -3.15  H2
  H2O(g)           -1.48     -0.01    1.47  H2O
  O2(g)           -54.80    -57.74   -2.95  O2

**For a gas, SI = log10(fugacity). Fugacity = pressure * phi / 1 atm.
  For ideal gases, phi = 1.

------------------
End of simulation.
------------------

------------------------------------
Reading input data for simulation 8.
------------------------------------

		SOLUTION 1
	 temp 25
	 pH 3 charge
	C(4) 1 CO2(g)   2.0831e+00
	pressure   1.2110e+02
	END
-------------------------------------------
Beginning of initial solution calculations.
-------------------------------------------

Initial solution 1.	

-----------------------------Solution composition------------------------------

	Elements           Molality       Moles

	C(4)              1.471e+00   1.471e+00  Equilibrium with CO2(g)

----------------------------Description of solution----------------------------

                                       pH  =   3.079      Charge balance
                                       pe  =   4.000    
      Specific Conductance (µS/cm,  25°C)  = 244
                          Density (g/cm³)  =   1.01585
                               Volume (L)  =   1.04814
                        Viscosity (mPa s)  =   0.98981
                        Activity of water  =   0.976
                 Ionic strength (mol/kgw)  =   8.602e-04
                       Mass of water (kg)  =   1.000e+00
                 Total alkalinity (eq/kg)  =  -2.448e-15
                       Total CO2 (mol/kg)  =   1.471e+00
                         Temperature (°C)  =  25.00
                           Pressure (atm)  = 121.10
                  Electrical balance (eq)  =   2.448e-15
 Percent error, 100*(Cat-|An|)/(Cat+|An|)  =   0.00
                               Iterations  =   7
                                  Total H  = 1.110142e+02
                                  Total O  = 5.844875e+01

----------------------------Distribution of species----------------------------

                                               Log       Log       Log    mole V
   Species          Molality    Activity  Molality  Activity     Gamma   cm³/mol

   H+              8.602e-04   8.335e-04    -3.065    -3.079    -0.014      0.00
   OH-             1.362e-11   1.317e-11   -10.866   -10.880    -0.014     -3.68
   H2O             5.551e+01   9.756e-01     1.744    -0.011     0.000     17.97
C(4)          1.471e+00
   CO2             1.398e+00   1.398e+00     0.146     0.146     0.000     34.38
   (CO2)2          3.589e-02   3.589e-02    -1.445    -1.445     0.000     68.75
   HCO3-           8.602e-04   8.327e-04    -3.065    -3.080    -0.014     24.97
   CO3-2           6.117e-11   5.370e-11   -10.213   -10.270    -0.057     -2.84
H(0)          8.549e-18
   H2              4.275e-18   4.275e-18   -17.369   -17.369     0.000     28.55
O(0)          0.000e+00
   O2              0.000e+00   0.000e+00   -57.773   -57.773     0.000     30.23

------------------------------Saturation indices-------------------------------

  Phase               SI** log IAP   log K(298 K, 121 atm)

  CO2(g)            1.69      0.15   -1.54  CO2	 Pressure 121.1 atm, phi 0.402
  H2(g)           -14.21    -17.37   -3.16  H2
  H2O(g)           -1.48     -0.01    1.46  H2O
  O2(g)           -54.82    -57.77   -2.96  O2

**For a gas, SI = log10(fugacity). Fugacity = pressure * phi / 1 atm.
  For ideal gases, phi = 1.

------------------
End of simulation.
------------------

------------------------------------
Reading input data for simulation 9.
------------------------------------

		SOLUTION 1
	 temp 25
	 pH 3 charge
	C(4) 1 CO2(g)   2.1495e+00
	pressure   1.4110e+02
	END
-------------------------------------------
Beginning of initial solution calculations.
-------------------------------------------

Initial solution 1.	

-----------------------------Solution composition------------------------------

	Elements           Molality       Moles

	C(4)              1.494e+00   1.494e+00  Equilibrium with CO2(g)

----------------------------Description of solution----------------------------

                                       pH  =   3.071      Charge balance
                                       pe  =   4.000    
      Specific Conductance (µS/cm,  25°C)  = 248
                          Density (g/cm³)  =   1.01691
                               Volume (L)  =   1.04802
                        Viscosity (mPa s)  =   0.99116
                        Activity of water  =   0.975
                 Ionic strength (mol/kgw)  =   8.761e-04
                       Mass of water (kg)  =   1.000e+00
                 Total alkalinity (eq/kg)  =  -3.184e-15
                       Total CO2 (mol/kg)  =   1.494e+00
                         Temperature (°C)  =  25.00
                           Pressure (atm)  = 141.10
                  Electrical balance (eq)  =   3.184e-15
 Percent error, 100*(Cat-|An|)/(Cat+|An|)  =   0.00
                               Iterations  =   7
                                  Total H  = 1.110142e+02
                                  Total O  = 5.849429e+01

----------------------------Distribution of species----------------------------

                                               Log       Log       Log    mole V
   Species          Molality    Activity  Molality  Activity     Gamma   cm³/mol

   H+              8.761e-04   8.487e-04    -3.057    -3.071    -0.014      0.00
   OH-             1.361e-11   1.316e-11   -10.866   -10.881    -0.015     -3.61
   H2O             5.551e+01   9.752e-01     1.744    -0.011     0.000     17.96
C(4)          1.494e+00
   CO2             1.419e+00   1.419e+00     0.152     0.152     0.000     34.37
   (CO2)2          3.695e-02   3.696e-02    -1.432    -1.432     0.000     68.73
   HCO3-           8.761e-04   8.478e-04    -3.057    -3.072    -0.014     25.04
   CO3-2           6.260e-11   5.490e-11   -10.203   -10.260    -0.057     -2.66
H(0)          8.660e-18
   H2              4.330e-18   4.331e-18   -17.364   -17.363     0.000     28.54
O(0)          0.000e+00
   O2              0.000e+00   0.000e+00   -57.803   -57.803     0.000     30.20

------------------------------Saturation indices-------------------------------

  Phase               SI** log IAP   log K(298 K, 141 atm)

  CO2(g)            1.71      0.15   -1.55  CO2	 Pressure 141.1 atm, phi 0.360
  H2(g)           -14.19    -17.36   -3.17  H2
  H2O(g)           -1.47     -0.01    1.46  H2O
  O2(g)           -54.84    -57.80   -2.97  O2

**For a gas, SI = log10(fugacity). Fugacity = pressure * phi / 1 atm.
  For ideal gases, phi = 1.

------------------
End of simulation.
------------------

-------------------------------------
Reading input data for simulation 10.
-------------------------------------

		SOLUTION 1
	 temp 25
	 pH 3 charge
	C(4) 1 CO2(g)   2.2071e+00
	pressure   1.6110e+02
	END
-------------------------------------------
Beginning of initial solution calculations.
-------------------------------------------

Initial solution 1.	

-----------------------------Solution composition------------------------------

	Elements           Molality       Moles

	C(4)              1.515e+00   1.515e+00  Equilibrium with CO2(g)

----------------------------Description of solution----------------------------

                                       pH  =   3.064      Charge balance
                                       pe  =   4.000    
      Specific Conductance (µS/cm,  25°C)  = 252
                          Density (g/cm³)  =   1.01796
                               Volume (L)  =   1.04785
                        Viscosity (mPa s)  =   0.99241
                        Activity of water  =   0.975
                 Ionic strength (mol/kgw)  =   8.916e-04
                       Mass of water (kg)  =   1.000e+00
                 Total alkalinity (eq/kg)  =  -4.006e-15
                       Total CO2 (mol/kg)  =   1.515e+00
                         Temperature (°C)  =  25.00
                           Pressure (atm)  = 161.10
                  Electrical balance (eq)  =   4.006e-15
 Percent error, 100*(Cat-|An|)/(Cat+|An|)  =   0.00
                               Iterations  =   7
                                  Total H  = 1.110142e+02
                                  Total O  = 5.853620e+01

----------------------------Distribution of species----------------------------

                                               Log       Log       Log    mole V
   Species          Molality    Activity  Molality  Activity     Gamma   cm³/mol

   H+              8.916e-04   8.636e-04    -3.050    -3.064    -0.014      0.00
   OH-             1.360e-11   1.315e-11   -10.866   -10.881    -0.015     -3.54
   H2O             5.551e+01   9.749e-01     1.744    -0.011     0.000     17.94
C(4)          1.515e+00
   CO2             1.438e+00   1.438e+00     0.158     0.158     0.000     34.36
   (CO2)2          3.795e-02   3.795e-02    -1.421    -1.421     0.000     68.72
   HCO3-           8.916e-04   8.627e-04    -3.050    -3.064    -0.014     25.10
   CO3-2           6.404e-11   5.611e-11   -10.194   -10.251    -0.057     -2.49
H(0)          8.759e-18
   H2              4.380e-18   4.380e-18   -17.359   -17.358     0.000     28.53
O(0)          0.000e+00
   O2              0.000e+00   0.000e+00   -57.831   -57.831     0.000     30.17

------------------------------Saturation indices-------------------------------

  Phase               SI** log IAP   log K(298 K, 161 atm)

  CO2(g)            1.72      0.16   -1.57  CO2	 Pressure 161.1 atm, phi 0.328
  H2(g)           -14.18    -17.36   -3.18  H2
  H2O(g)           -1.46     -0.01    1.45  H2O
  O2(g)           -54.85    -57.83   -2.98  O2

**For a gas, SI = log10(fugacity). Fugacity = pressure * phi / 1 atm.
  For ideal gases, phi = 1.

------------------
End of simulation.
------------------

-------------------------------------
Reading input data for simulation 11.
-------------------------------------

		SOLUTION 1
	 temp 25
	 pH 3 charge
	C(4) 1 CO2(g)   2.2579e+00
	pressure   1.8110e+02
	END
-------------------------------------------
Beginning of initial solution calculations.
-------------------------------------------

Initial solution 1.	

-----------------------------Solution composition------------------------------

	Elements           Molality       Moles

	C(4)              1.534e+00   1.534e+00  Equilibrium with CO2(g)

----------------------------Description of solution----------------------------

                                       pH  =   3.056      Charge balance
                                       pe  =   4.000    
      Specific Conductance (µS/cm,  25°C)  = 255
                          Density (g/cm³)  =   1.01899
                               Volume (L)  =   1.04763
                        Viscosity (mPa s)  =   0.99356
                        Activity of water  =   0.975
                 Ionic strength (mol/kgw)  =   9.069e-04
                       Mass of water (kg)  =   1.000e+00
                 Total alkalinity (eq/kg)  =  -4.901e-15
                       Total CO2 (mol/kg)  =   1.534e+00
                         Temperature (°C)  =  25.00
                           Pressure (atm)  = 181.10
                  Electrical balance (eq)  =   4.901e-15
 Percent error, 100*(Cat-|An|)/(Cat+|An|)  =   0.00
                               Iterations  =   7
                                  Total H  = 1.110142e+02
                                  Total O  = 5.857505e+01

----------------------------Distribution of species----------------------------

                                               Log       Log       Log    mole V
   Species          Molality    Activity  Molality  Activity     Gamma   cm³/mol

   H+              9.069e-04   8.781e-04    -3.042    -3.056    -0.014      0.00
   OH-             1.360e-11   1.315e-11   -10.866   -10.881    -0.015     -3.47
   H2O             5.551e+01   9.746e-01     1.744    -0.011     0.000     17.92
C(4)          1.534e+00
   CO2             1.455e+00   1.456e+00     0.163     0.163     0.000     34.35
   (CO2)2          3.888e-02   3.889e-02    -1.410    -1.410     0.000     68.70
   HCO3-           9.069e-04   8.772e-04    -3.042    -3.057    -0.014     25.16
   CO3-2           6.551e-11   5.735e-11   -10.184   -10.241    -0.058     -2.31
H(0)          8.848e-18
   H2              4.424e-18   4.425e-18   -17.354   -17.354     0.000     28.52
O(0)          0.000e+00
   O2              0.000e+00   0.000e+00   -57.858   -57.858     0.000     30.15

------------------------------Saturation indices-------------------------------

  Phase               SI** log IAP   log K(298 K, 181 atm)

  CO2(g)            1.74      0.16   -1.58  CO2	 Pressure 181.1 atm, phi 0.304
  H2(g)           -14.16    -17.35   -3.19  H2
  H2O(g)           -1.46     -0.01    1.45  H2O
  O2(g)           -54.87    -57.86   -2.99  O2

**For a gas, SI = log10(fugacity). Fugacity = pressure * phi / 1 atm.
  For ideal gases, phi = 1.

------------------
End of simulation.
------------------

-------------------------------------
Reading input data for simulation 12.
-------------------------------------

		SOLUTION 1
	 temp 25
	 pH 3 charge
	C(4) 1 CO2(g)   2.3034e+00
	pressure   2.0110e+02
	END
-------------------------------------------
Beginning of initial solution calculations.
-------------------------------------------

Initial solution 1.	

-----------------------------Solution composition------------------------------

	Elements           Molality       Moles

	C(4)              1.552e+00   1.552e+00  Equilibrium with CO2(g)

----------------------------Description of solution----------------------------

                                       pH  =   3.049      Charge balance
                                       pe  =   4.000    
      Specific Conductance (µS/cm,  25°C)  = 259
                          Density (g/cm³)  =   1.02001
                               Volume (L)  =   1.04737
                        Viscosity (mPa s)  =   0.99466
                        Activity of water  =   0.974
                 Ionic strength (mol/kgw)  =   9.219e-04
                       Mass of water (kg)  =   1.000e+00
                 Total alkalinity (eq/kg)  =  -5.879e-15
                       Total CO2 (mol/kg)  =   1.552e+00
                         Temperature (°C)  =  25.00
                           Pressure (atm)  = 201.10
                  Electrical balance (eq)  =   5.879e-15
 Percent error, 100*(Cat-|An|)/(Cat+|An|)  =   0.00
                               Iterations  =   7
                                  Total H  = 1.110143e+02
                                  Total O  = 5.861154e+01

----------------------------Distribution of species----------------------------

                                               Log       Log       Log    mole V
   Species          Molality    Activity  Molality  Activity     Gamma   cm³/mol

   H+              9.219e-04   8.925e-04    -3.035    -3.049    -0.014      0.00
   OH-             1.361e-11   1.315e-11   -10.866   -10.881    -0.015     -3.40
   H2O             5.551e+01   9.743e-01     1.744    -0.011     0.000     17.91
C(4)          1.552e+00
   CO2             1.472e+00   1.472e+00     0.168     0.168     0.000     34.34
   (CO2)2          3.976e-02   3.977e-02    -1.401    -1.400     0.000     68.68
   HCO3-           9.219e-04   8.915e-04    -3.035    -3.050    -0.015     25.22
   CO3-2           6.700e-11   5.860e-11   -10.174   -10.232    -0.058     -2.14
H(0)          8.930e-18
   H2              4.465e-18   4.466e-18   -17.350   -17.350     0.000     28.52
O(0)          0.000e+00
   O2              0.000e+00   0.000e+00   -57.885   -57.885     0.000     30.12

------------------------------Saturation indices-------------------------------

  Phase               SI** log IAP   log K(298 K, 201 atm)

  CO2(g)            1.76      0.17   -1.59  CO2	 Pressure 201.1 atm, phi 0.285
  H2(g)           -14.15    -17.35   -3.20  H2
  H2O(g)           -1.45     -0.01    1.44  H2O
  O2(g)           -54.89    -57.88   -3.00  O2

**For a gas, SI = log10(fugacity). Fugacity = pressure * phi / 1 atm.
  For ideal gases, phi = 1.

------------------
End of simulation.
------------------

-------------------------------------
Reading input data for simulation 13.
-------------------------------------

		SOLUTION 1
	 temp 25
	 pH 3 charge
	C(4) 1 CO2(g)   2.3446e+00
	pressure   2.2110e+02
	END
-------------------------------------------
Beginning of initial solution calculations.
-------------------------------------------

Initial solution 1.	

-----------------------------Solution composition------------------------------

	Elements           Molality       Moles

	C(4)              1.569e+00   1.569e+00  Equilibrium with CO2(g)

----------------------------Description of solution----------------------------

                                       pH  =   3.043      Charge balance
                                       pe  =   4.000    
      Specific Conductance (µS/cm,  25°C)  = 263
                          Density (g/cm³)  =   1.02102
                               Volume (L)  =   1.04708
                        Viscosity (mPa s)  =   0.99570
                        Activity of water  =   0.974
                 Ionic strength (mol/kgw)  =   9.367e-04
                       Mass of water (kg)  =   1.000e+00
                 Total alkalinity (eq/kg)  =  -6.929e-15
                       Total CO2 (mol/kg)  =   1.569e+00
                         Temperature (°C)  =  25.00
                           Pressure (atm)  = 221.10
                  Electrical balance (eq)  =   6.929e-15
 Percent error, 100*(Cat-|An|)/(Cat+|An|)  =   0.00
                               Iterations  =   7
                                  Total H  = 1.110143e+02
                                  Total O  = 5.864599e+01

----------------------------Distribution of species----------------------------

                                               Log       Log       Log    mole V
   Species          Molality    Activity  Molality  Activity     Gamma   cm³/mol

   H+              9.367e-04   9.067e-04    -3.028    -3.043    -0.014      0.00
   OH-             1.362e-11   1.316e-11   -10.866   -10.881    -0.015     -3.34
   H2O             5.551e+01   9.740e-01     1.744    -0.011     0.000     17.89
C(4)          1.569e+00
   CO2             1.487e+00   1.487e+00     0.172     0.172     0.000     34.33
   (CO2)2          4.060e-02   4.061e-02    -1.391    -1.391     0.000     68.66
   HCO3-           9.367e-04   9.056e-04    -3.028    -3.043    -0.015     25.28
   CO3-2           6.851e-11   5.986e-11   -10.164   -10.223    -0.059     -1.97
H(0)          9.004e-18
   H2              4.502e-18   4.503e-18   -17.347   -17.346     0.000     28.51
O(0)          0.000e+00
   O2              0.000e+00   0.000e+00   -57.911   -57.910     0.000     30.09

------------------------------Saturation indices-------------------------------

  Phase               SI** log IAP   log K(298 K, 221 atm)

  CO2(g)            1.77      0.17   -1.60  CO2	 Pressure 221.1 atm, phi 0.269
  H2(g)           -14.13    -17.35   -3.21  H2
  H2O(g)           -1.44     -0.01    1.43  H2O
  O2(g)           -54.90    -57.91   -3.01  O2

**For a gas, SI = log10(fugacity). Fugacity = pressure * phi / 1 atm.
  For ideal gases, phi = 1.

------------------
End of simulation.
------------------

-------------------------------------
Reading input data for simulation 14.
-------------------------------------

		SOLUTION 1
	 temp 25
	 pH 3 charge
	C(4) 1 CO2(g)   2.3822e+00
	pressure   2.4110e+02
	END
-------------------------------------------
Beginning of initial solution calculations.
-------------------------------------------

Initial solution 1.	

-----------------------------Solution composition------------------------------

	Elements           Molality       Moles

	C(4)              1.586e+00   1.586e+00  Equilibrium with CO2(g)

----------------------------Description of solution----------------------------

                                       pH  =   3.036      Charge balance
                                       pe  =   4.000    
      Specific Conductance (µS/cm,  25°C)  = 267
                          Density (g/cm³)  =   1.02201
                               Volume (L)  =   1.04676
                        Viscosity (mPa s)  =   0.99669
                        Activity of water  =   0.974
                 Ionic strength (mol/kgw)  =   9.514e-04
                       Mass of water (kg)  =   1.000e+00
                 Total alkalinity (eq/kg)  =  -8.035e-15
                       Total CO2 (mol/kg)  =   1.586e+00
                         Temperature (°C)  =  25.00
                           Pressure (atm)  = 241.10
                  Electrical balance (eq)  =   8.035e-15
 Percent error, 100*(Cat-|An|)/(Cat+|An|)  =   0.00
                               Iterations  =   7
                                  Total H  = 1.110143e+02
                                  Total O  = 5.867853e+01

----------------------------Distribution of species----------------------------

                                               Log       Log       Log    mole V
   Species          Molality    Activity  Molality  Activity     Gamma   cm³/mol

   H+              9.514e-04   9.207e-04    -3.022    -3.036    -0.014      0.00
   OH-             1.364e-11   1.317e-11   -10.865   -10.880    -0.015     -3.27
   H2O             5.551e+01   9.737e-01     1.744    -0.012     0.000     17.88
C(4)          1.586e+00
   CO2             1.502e+00   1.502e+00     0.177     0.177     0.000     34.32
   (CO2)2          4.141e-02   4.142e-02    -1.383    -1.383     0.000     68.64
   HCO3-           9.514e-04   9.197e-04    -3.022    -3.036    -0.015     25.34
   CO3-2           7.004e-11   6.115e-11   -10.155   -10.214    -0.059     -1.81
H(0)          9.072e-18
   H2              4.536e-18   4.537e-18   -17.343   -17.343     0.000     28.50
O(0)          0.000e+00
   O2              0.000e+00   0.000e+00   -57.935   -57.935     0.000     30.07

------------------------------Saturation indices-------------------------------

  Phase               SI** log IAP   log K(298 K, 241 atm)

  CO2(g)            1.79      0.18   -1.61  CO2	 Pressure 241.1 atm, phi 0.256
  H2(g)           -14.12    -17.34   -3.22  H2
  H2O(g)           -1.44     -0.01    1.43  H2O
  O2(g)           -54.91    -57.94   -3.02  O2

**For a gas, SI = log10(fugacity). Fugacity = pressure * phi / 1 atm.
  For ideal gases, phi = 1.

------------------
End of simulation.
------------------

-------------------------------------
Reading input data for simulation 15.
-------------------------------------

		SOLUTION 1
	 temp 25
	 pH 3 charge
	C(4) 1 CO2(g)   2.4168e+00
	pressure   2.6110e+02
	END
-------------------------------------------
Beginning of initial solution calculations.
-------------------------------------------

Initial solution 1.	

-----------------------------Solution composition------------------------------

	Elements           Molality       Moles

	C(4)              1.601e+00   1.601e+00  Equilibrium with CO2(g)

----------------------------Description of solution----------------------------

                                       pH  =   3.029      Charge balance
                                       pe  =   4.000    
      Specific Conductance (µS/cm,  25°C)  = 270
                          Density (g/cm³)  =   1.02300
                               Volume (L)  =   1.04642
                        Viscosity (mPa s)  =   0.99764
                        Activity of water  =   0.973
                 Ionic strength (mol/kgw)  =   9.660e-04
                       Mass of water (kg)  =   1.000e+00
                 Total alkalinity (eq/kg)  =  -9.201e-15
                       Total CO2 (mol/kg)  =   1.601e+00
                         Temperature (°C)  =  25.00
                           Pressure (atm)  = 261.10
                  Electrical balance (eq)  =   9.201e-15
 Percent error, 100*(Cat-|An|)/(Cat+|An|)  =   0.00
                               Iterations  =   7
                                  Total H  = 1.110144e+02
                                  Total O  = 5.870944e+01

----------------------------Distribution of species----------------------------

                                               Log       Log       Log    mole V
   Species          Molality    Activity  Molality  Activity     Gamma   cm³/mol

   H+              9.660e-04   9.346e-04    -3.015    -3.029    -0.014      0.00
   OH-             1.366e-11   1.319e-11   -10.865   -10.880    -0.015     -3.21
   H2O             5.551e+01   9.735e-01     1.744    -0.012     0.000     17.86
C(4)          1.601e+00
   CO2             1.516e+00   1.516e+00     0.181     0.181     0.000     34.31
   (CO2)2          4.218e-02   4.219e-02    -1.375    -1.375     0.000     68.62
   HCO3-           9.660e-04   9.336e-04    -3.015    -3.030    -0.015     25.40
   CO3-2           7.159e-11   6.245e-11   -10.145   -10.204    -0.059     -1.64
H(0)          9.134e-18
   H2              4.567e-18   4.568e-18   -17.340   -17.340     0.000     28.49
O(0)          0.000e+00
   O2              0.000e+00   0.000e+00   -57.960   -57.960     0.000     30.04

------------------------------Saturation indices-------------------------------

  Phase               SI** log IAP   log K(298 K, 261 atm)

  CO2(g)            1.81      0.18   -1.63  CO2	 Pressure 261.1 atm, phi 0.246
  H2(g)           -14.11    -17.34   -3.23  H2
  H2O(g)           -1.43     -0.01    1.42  H2O
  O2(g)           -54.93    -57.96   -3.03  O2

**For a gas, SI = log10(fugacity). Fugacity = pressure * phi / 1 atm.
  For ideal gases, phi = 1.

------------------
End of simulation.
------------------

-------------------------------------
Reading input data for simulation 16.
-------------------------------------

		SOLUTION 1
	 temp 25
	 pH 3 charge
	C(4) 1 CO2(g)   2.4489e+00
	pressure   2.8110e+02
	END
-------------------------------------------
Beginning of initial solution calculations.
-------------------------------------------

Initial solution 1.	

-----------------------------Solution composition------------------------------

	Elements           Molality       Moles

	C(4)              1.616e+00   1.616e+00  Equilibrium with CO2(g)

----------------------------Description of solution----------------------------

                                       pH  =   3.023      Charge balance
                                       pe  =   4.000    
      Specific Conductance (µS/cm,  25°C)  = 274
                          Density (g/cm³)  =   1.02397
                               Volume (L)  =   1.04606
                        Viscosity (mPa s)  =   0.99857
                        Activity of water  =   0.973
                 Ionic strength (mol/kgw)  =   9.805e-04
                       Mass of water (kg)  =   1.000e+00
                 Total alkalinity (eq/kg)  =  -1.043e-14
                       Total CO2 (mol/kg)  =   1.616e+00
                         Temperature (°C)  =  25.00
                           Pressure (atm)  = 281.10
                  Electrical balance (eq)  =   1.043e-14
 Percent error, 100*(Cat-|An|)/(Cat+|An|)  =   0.00
                               Iterations  =   7
                                  Total H  = 1.110144e+02
                                  Total O  = 5.873912e+01

----------------------------Distribution of species----------------------------

                                               Log       Log       Log    mole V
   Species          Molality    Activity  Molality  Activity     Gamma   cm³/mol

   H+              9.805e-04   9.485e-04    -3.009    -3.023    -0.014      0.00
   OH-             1.368e-11   1.321e-11   -10.864   -10.879    -0.015     -3.14
   H2O             5.551e+01   9.732e-01     1.744    -0.012     0.000     17.85
C(4)          1.616e+00
   CO2             1.529e+00   1.529e+00     0.184     0.185     0.000     34.30
   (CO2)2          4.292e-02   4.293e-02    -1.367    -1.367     0.000     68.60
   HCO3-           9.805e-04   9.474e-04    -3.009    -3.023    -0.015     25.46
   CO3-2           7.317e-11   6.377e-11   -10.136   -10.195    -0.060     -1.48
H(0)          9.192e-18
   H2              4.596e-18   4.597e-18   -17.338   -17.338     0.000     28.48
O(0)          0.000e+00
   O2              0.000e+00   0.000e+00   -57.984   -57.983     0.000     30.02

------------------------------Saturation indices-------------------------------

  Phase               SI** log IAP   log K(298 K, 281 atm)

  CO2(g)            1.82      0.18   -1.64  CO2	 Pressure 281.1 atm, phi 0.237
  H2(g)           -14.09    -17.34   -3.24  H2
  H2O(g)           -1.43     -0.01    1.41  H2O
  O2(g)           -54.94    -57.98   -3.04  O2

**For a gas, SI = log10(fugacity). Fugacity = pressure * phi / 1 atm.
  For ideal gases, phi = 1.

------------------
End of simulation.
------------------

-------------------------------------
Reading input data for simulation 17.
-------------------------------------

		SOLUTION 1
	 temp 25
	 pH 3 charge
	C(4) 1 CO2(g)   2.4787e+00
	pressure   3.0110e+02
	END
-------------------------------------------
Beginning of initial solution calculations.
-------------------------------------------

Initial solution 1.	

-----------------------------Solution composition------------------------------

	Elements           Molality       Moles

	C(4)              1.630e+00   1.630e+00  Equilibrium with CO2(g)

----------------------------Description of solution----------------------------

                                       pH  =   3.017      Charge balance
                                       pe  =   4.000    
      Specific Conductance (µS/cm,  25°C)  = 278
                          Density (g/cm³)  =   1.02494
                               Volume (L)  =   1.04568
                        Viscosity (mPa s)  =   0.99945
                        Activity of water  =   0.973
                 Ionic strength (mol/kgw)  =   9.949e-04
                       Mass of water (kg)  =   1.000e+00
                 Total alkalinity (eq/kg)  =  -1.168e-14
                       Total CO2 (mol/kg)  =   1.630e+00
                         Temperature (°C)  =  25.00
                           Pressure (atm)  = 301.10
                  Electrical balance (eq)  =   1.168e-14
 Percent error, 100*(Cat-|An|)/(Cat+|An|)  =   0.00
                               Iterations  =   7
                                  Total H  = 1.110144e+02
                                  Total O  = 5.876711e+01

----------------------------Distribution of species----------------------------

                                               Log       Log       Log    mole V
   Species          Molality    Activity  Molality  Activity     Gamma   cm³/mol

   H+              9.949e-04   9.622e-04    -3.002    -3.017    -0.015      0.00
   OH-             1.370e-11   1.323e-11   -10.863   -10.879    -0.015     -3.08
   H2O             5.551e+01   9.730e-01     1.744    -0.012     0.000     17.83
C(4)          1.630e+00
   CO2             1.542e+00   1.542e+00     0.188     0.188     0.000     34.29
   (CO2)2          4.363e-02   4.364e-02    -1.360    -1.360     0.000     68.59
   HCO3-           9.949e-04   9.611e-04    -3.002    -3.017    -0.015     25.52
   CO3-2           7.476e-11   6.510e-11   -10.126   -10.186    -0.060     -1.32
H(0)          9.243e-18
   H2              4.622e-18   4.623e-18   -17.335   -17.335     0.000     28.47
O(0)          0.000e+00
   O2              0.000e+00   0.000e+00   -58.007   -58.007     0.000     29.99

------------------------------Saturation indices-------------------------------

  Phase               SI** log IAP   log K(298 K, 301 atm)

  CO2(g)            1.84      0.19   -1.65  CO2	 Pressure 301.1 atm, phi 0.229
  H2(g)           -14.08    -17.34   -3.25  H2
  H2O(g)           -1.42     -0.01    1.41  H2O
  O2(g)           -54.95    -58.01   -3.05  O2

**For a gas, SI = log10(fugacity). Fugacity = pressure * phi / 1 atm.
  For ideal gases, phi = 1.

------------------
End of simulation.
------------------

-------------------------------------
Reading input data for simulation 18.
-------------------------------------

		SOLUTION 1
	 temp 25
	 pH 3 charge
	C(4) 1 CO2(g)   2.5066e+00
	pressure   3.2110e+02
	END
-------------------------------------------
Beginning of initial solution calculations.
-------------------------------------------

Initial solution 1.	

-----------------------------Solution composition------------------------------

	Elements           Molality       Moles

	C(4)              1.643e+00   1.643e+00  Equilibrium with CO2(g)

----------------------------Description of solution----------------------------

                                       pH  =   3.011      Charge balance
                                       pe  =   4.000    
      Specific Conductance (µS/cm,  25°C)  = 281
                          Density (g/cm³)  =   1.02589
                               Volume (L)  =   1.04528
                        Viscosity (mPa s)  =   1.00031
                        Activity of water  =   0.973
                 Ionic strength (mol/kgw)  =   1.009e-03
                       Mass of water (kg)  =   1.000e+00
                 Total alkalinity (eq/kg)  =  -1.298e-14
                       Total CO2 (mol/kg)  =   1.643e+00
                         Temperature (°C)  =  25.00
                           Pressure (atm)  = 321.10
                  Electrical balance (eq)  =   1.298e-14
 Percent error, 100*(Cat-|An|)/(Cat+|An|)  =   0.00
                               Iterations  =   7
                                  Total H  = 1.110145e+02
                                  Total O  = 5.879396e+01

----------------------------Distribution of species----------------------------

                                               Log       Log       Log    mole V
   Species          Molality    Activity  Molality  Activity     Gamma   cm³/mol

   H+              1.009e-03   9.759e-04    -2.996    -3.011    -0.015      0.00
   OH-             1.373e-11   1.325e-11   -10.862   -10.878    -0.015     -3.02
   H2O             5.551e+01   9.728e-01     1.744    -0.012     0.000     17.82
C(4)          1.643e+00
   CO2             1.554e+00   1.554e+00     0.191     0.191     0.000     34.28
   (CO2)2          4.431e-02   4.432e-02    -1.353    -1.353     0.000     68.57
   HCO3-           1.009e-03   9.748e-04    -2.996    -3.011    -0.015     25.57
   CO3-2           7.638e-11   6.646e-11   -10.117   -10.177    -0.060     -1.16
H(0)          9.290e-18
   H2              4.645e-18   4.646e-18   -17.333   -17.333     0.000     28.47
O(0)          0.000e+00
   O2              0.000e+00   0.000e+00   -58.030   -58.029     0.000     29.97

------------------------------Saturation indices-------------------------------

  Phase               SI** log IAP   log K(298 K, 321 atm)

  CO2(g)            1.85      0.19   -1.66  CO2	 Pressure 321.1 atm, phi 0.223
  H2(g)           -14.07    -17.33   -3.26  H2
  H2O(g)           -1.41     -0.01    1.40  H2O
  O2(g)           -54.97    -58.03   -3.06  O2

**For a gas, SI = log10(fugacity). Fugacity = pressure * phi / 1 atm.
  For ideal gases, phi = 1.

------------------
End of simulation.
------------------

-------------------------------------
Reading input data for simulation 19.
-------------------------------------

		SOLUTION 1
	 temp 25
	 pH 3 charge
	C(4) 1 CO2(g)   2.5329e+00
	pressure   3.4110e+02
	END
-------------------------------------------
Beginning of initial solution calculations.
-------------------------------------------

Initial solution 1.	

-----------------------------Solution composition------------------------------

	Elements           Molality       Moles

	C(4)              1.656e+00   1.656e+00  Equilibrium with CO2(g)

----------------------------Description of solution----------------------------

                                       pH  =   3.005      Charge balance
                                       pe  =   4.000    
      Specific Conductance (µS/cm,  25°C)  = 285
                          Density (g/cm³)  =   1.02684
                               Volume (L)  =   1.04488
                        Viscosity (mPa s)  =   1.00117
                        Activity of water  =   0.973
                 Ionic strength (mol/kgw)  =   1.024e-03
                       Mass of water (kg)  =   1.000e+00
                 Total alkalinity (eq/kg)  =  -1.433e-14
                       Total CO2 (mol/kg)  =   1.656e+00
                         Temperature (°C)  =  25.00
                           Pressure (atm)  = 341.10
                  Electrical balance (eq)  =   1.433e-14
 Percent error, 100*(Cat-|An|)/(Cat+|An|)  =   0.00
                               Iterations  =   7
                                  Total H  = 1.110145e+02
                                  Total O  = 5.882011e+01

----------------------------Distribution of species----------------------------

                                               Log       Log       Log    mole V
   Species          Molality    Activity  Molality  Activity     Gamma   cm³/mol

   H+              1.024e-03   9.896e-04    -2.990    -3.005    -0.015      0.00
   OH-             1.376e-11   1.327e-11   -10.861   -10.877    -0.015     -2.96
   H2O             5.551e+01   9.726e-01     1.744    -0.012     0.000     17.80
C(4)          1.656e+00
   CO2             1.565e+00   1.566e+00     0.195     0.195     0.000     34.27
   (CO2)2          4.498e-02   4.500e-02    -1.347    -1.347     0.000     68.55
   HCO3-           1.024e-03   9.884e-04    -2.990    -3.005    -0.015     25.63
   CO3-2           7.802e-11   6.783e-11   -10.108   -10.169    -0.061     -1.01
H(0)          9.334e-18
   H2              4.667e-18   4.668e-18   -17.331   -17.331     0.000     28.46
O(0)          0.000e+00
   O2              0.000e+00   0.000e+00   -58.052   -58.052     0.000     29.94

------------------------------Saturation indices-------------------------------

  Phase               SI** log IAP   log K(298 K, 341 atm)

  CO2(g)            1.87      0.19   -1.68  CO2	 Pressure 341.1 atm, phi 0.217
  H2(g)           -14.06    -17.33   -3.27  H2
  H2O(g)           -1.41     -0.01    1.40  H2O
  O2(g)           -54.98    -58.05   -3.07  O2

**For a gas, SI = log10(fugacity). Fugacity = pressure * phi / 1 atm.
  For ideal gases, phi = 1.

------------------
End of simulation.
------------------

-------------------------------------
Reading input data for simulation 20.
-------------------------------------

		SOLUTION 1
	 temp 25
	 pH 3 charge
	C(4) 1 CO2(g)   2.5576e+00
	pressure   3.6110e+02
	END
-------------------------------------------
Beginning of initial solution calculations.
-------------------------------------------

Initial solution 1.	

-----------------------------Solution composition------------------------------

	Elements           Molality       Moles

	C(4)              1.669e+00   1.669e+00  Equilibrium with CO2(g)

----------------------------Description of solution----------------------------

                                       pH  =   2.999      Charge balance
                                       pe  =   4.000    
      Specific Conductance (µS/cm,  25°C)  = 289
                          Density (g/cm³)  =   1.02778
                               Volume (L)  =   1.04445
                        Viscosity (mPa s)  =   1.00199
                        Activity of water  =   0.972
                 Ionic strength (mol/kgw)  =   1.038e-03
                       Mass of water (kg)  =   1.000e+00
                 Total alkalinity (eq/kg)  =  -1.567e-14
                       Total CO2 (mol/kg)  =   1.669e+00
                         Temperature (°C)  =  25.00
                           Pressure (atm)  = 361.10
                  Electrical balance (eq)  =   1.567e-14
 Percent error, 100*(Cat-|An|)/(Cat+|An|)  =   0.00
                               Iterations  =   7
                                  Total H  = 1.110145e+02
                                  Total O  = 5.884474e+01

----------------------------Distribution of species----------------------------

                                               Log       Log       Log    mole V
   Species          Molality    Activity  Molality  Activity     Gamma   cm³/mol

   H+              1.038e-03   1.003e-03    -2.984    -2.999    -0.015      0.00
   OH-             1.379e-11   1.330e-11   -10.861   -10.876    -0.016     -2.90
   H2O             5.551e+01   9.724e-01     1.744    -0.012     0.000     17.79
C(4)          1.669e+00
   CO2             1.576e+00   1.577e+00     0.198     0.198     0.000     34.26
   (CO2)2          4.562e-02   4.563e-02    -1.341    -1.341     0.000     68.53
   HCO3-           1.038e-03   1.002e-03    -2.984    -2.999    -0.015     25.69
   CO3-2           7.968e-11   6.922e-11   -10.099   -10.160    -0.061     -0.85
H(0)          9.372e-18
   H2              4.686e-18   4.687e-18   -17.329   -17.329     0.000     28.45
O(0)          0.000e+00
   O2              0.000e+00   0.000e+00   -58.074   -58.074     0.000     29.92

------------------------------Saturation indices-------------------------------

  Phase               SI** log IAP   log K(298 K, 361 atm)

  CO2(g)            1.88      0.20   -1.69  CO2	 Pressure 361.1 atm, phi 0.212
  H2(g)           -14.05    -17.33   -3.28  H2
  H2O(g)           -1.40     -0.01    1.39  H2O
  O2(g)           -54.99    -58.07   -3.08  O2

**For a gas, SI = log10(fugacity). Fugacity = pressure * phi / 1 atm.
  For ideal gases, phi = 1.

------------------
End of simulation.
------------------

-------------------------------------
Reading input data for simulation 21.
-------------------------------------

		SOLUTION 1
	 temp 25
	 pH 3 charge
	C(4) 1 CO2(g)   2.5810e+00
	pressure   3.8110e+02
	END
-------------------------------------------
Beginning of initial solution calculations.
-------------------------------------------

Initial solution 1.	

-----------------------------Solution composition------------------------------

	Elements           Molality       Moles

	C(4)              1.681e+00   1.681e+00  Equilibrium with CO2(g)

----------------------------Description of solution----------------------------

                                       pH  =   2.993      Charge balance
                                       pe  =   4.000    
      Specific Conductance (µS/cm,  25°C)  = 292
                          Density (g/cm³)  =   1.02871
                               Volume (L)  =   1.04401
                        Viscosity (mPa s)  =   1.00279
                        Activity of water  =   0.972
                 Ionic strength (mol/kgw)  =   1.052e-03
                       Mass of water (kg)  =   1.000e+00
                 Total alkalinity (eq/kg)  =  -1.703e-14
                       Total CO2 (mol/kg)  =   1.681e+00
                         Temperature (°C)  =  25.00
                           Pressure (atm)  = 381.10
                  Electrical balance (eq)  =   1.703e-14
 Percent error, 100*(Cat-|An|)/(Cat+|An|)  =   0.00
                               Iterations  =   7
                                  Total H  = 1.110145e+02
                                  Total O  = 5.886858e+01

----------------------------Distribution of species----------------------------

                                               Log       Log       Log    mole V
   Species          Molality    Activity  Molality  Activity     Gamma   cm³/mol

   H+              1.052e-03   1.017e-03    -2.978    -2.993    -0.015      0.00
   OH-             1.382e-11   1.333e-11   -10.860   -10.875    -0.016     -2.84
   H2O             5.551e+01   9.722e-01     1.744    -0.012     0.000     17.77
C(4)          1.681e+00
   CO2             1.587e+00   1.587e+00     0.201     0.201     0.000     34.26
   (CO2)2          4.624e-02   4.625e-02    -1.335    -1.335     0.000     68.51
   HCO3-           1.052e-03   1.016e-03    -2.978    -2.993    -0.015     25.74
   CO3-2           8.137e-11   7.063e-11   -10.090   -10.151    -0.061     -0.70
H(0)          9.408e-18
   H2              4.704e-18   4.705e-18   -17.328   -17.327     0.000     28.44
O(0)          0.000e+00
   O2              0.000e+00   0.000e+00   -58.095   -58.095     0.000     29.90

------------------------------Saturation indices-------------------------------

  Phase               SI** log IAP   log K(298 K, 381 atm)

  CO2(g)            1.90      0.20   -1.70  CO2	 Pressure 381.1 atm, phi 0.208
  H2(g)           -14.03    -17.33   -3.29  H2
  H2O(g)           -1.40     -0.01    1.38  H2O
  O2(g)           -55.00    -58.10   -3.09  O2

**For a gas, SI = log10(fugacity). Fugacity = pressure * phi / 1 atm.
  For ideal gases, phi = 1.

------------------
End of simulation.
------------------

-------------------------------------
Reading input data for simulation 22.
-------------------------------------

		SOLUTION 1
	 temp 25
	 pH 3 charge
	C(4) 1 CO2(g)   2.6033e+00
	pressure   4.0110e+02
	END
-------------------------------------------
Beginning of initial solution calculations.
-------------------------------------------

Initial solution 1.	

-----------------------------Solution composition------------------------------

	Elements           Molality       Moles

	C(4)              1.692e+00   1.692e+00  Equilibrium with CO2(g)

----------------------------Description of solution----------------------------

                                       pH  =   2.987      Charge balance
                                       pe  =   4.000    
      Specific Conductance (µS/cm,  25°C)  = 296
                          Density (g/cm³)  =   1.02964
                               Volume (L)  =   1.04357
                        Viscosity (mPa s)  =   1.00360
                        Activity of water  =   0.972
                 Ionic strength (mol/kgw)  =   1.066e-03
                       Mass of water (kg)  =   1.000e+00
                 Total alkalinity (eq/kg)  =  -1.841e-14
                       Total CO2 (mol/kg)  =   1.692e+00
                         Temperature (°C)  =  25.00
                           Pressure (atm)  = 401.10
                  Electrical balance (eq)  =   1.841e-14
 Percent error, 100*(Cat-|An|)/(Cat+|An|)  =   0.00
                               Iterations  =   7
                                  Total H  = 1.110146e+02
                                  Total O  = 5.889206e+01

----------------------------Distribution of species----------------------------

                                               Log       Log       Log    mole V
   Species          Molality    Activity  Molality  Activity     Gamma   cm³/mol

   H+              1.066e-03   1.030e-03    -2.972    -2.987    -0.015      0.00
   OH-             1.385e-11   1.336e-11   -10.859   -10.874    -0.016     -2.78
   H2O             5.551e+01   9.720e-01     1.744    -0.012     0.000     17.76
C(4)          1.692e+00
   CO2             1.598e+00   1.598e+00     0.203     0.204     0.000     34.25
   (CO2)2          4.685e-02   4.686e-02    -1.329    -1.329     0.000     68.49
   HCO3-           1.066e-03   1.029e-03    -2.972    -2.988    -0.015     25.80
   CO3-2           8.308e-11   7.206e-11   -10.081   -10.142    -0.062     -0.55
H(0)          9.440e-18
   H2              4.720e-18   4.721e-18   -17.326   -17.326     0.000     28.44
O(0)          0.000e+00
   O2              0.000e+00   0.000e+00   -58.117   -58.117     0.000     29.87

------------------------------Saturation indices-------------------------------

  Phase               SI** log IAP   log K(298 K, 401 atm)

  CO2(g)            1.91      0.20   -1.71  CO2	 Pressure 401.1 atm, phi 0.205
  H2(g)           -14.02    -17.33   -3.30  H2
  H2O(g)           -1.39     -0.01    1.38  H2O
  O2(g)           -55.01    -58.12   -3.10  O2

**For a gas, SI = log10(fugacity). Fugacity = pressure * phi / 1 atm.
  For ideal gases, phi = 1.

------------------
End of simulation.
------------------

-------------------------------------
Reading input data for simulation 23.
-------------------------------------

		SOLUTION 1
	 temp 25
	 pH 3 charge
	C(4) 1 CO2(g)   2.6244e+00
	pressure   4.2110e+02
	END
-------------------------------------------
Beginning of initial solution calculations.
-------------------------------------------

Initial solution 1.	

-----------------------------Solution composition------------------------------

	Elements           Molality       Moles

	C(4)              1.703e+00   1.703e+00  Equilibrium with CO2(g)

----------------------------Description of solution----------------------------

                                       pH  =   2.981      Charge balance
                                       pe  =   4.000    
      Specific Conductance (µS/cm,  25°C)  = 300
                          Density (g/cm³)  =   1.03056
                               Volume (L)  =   1.04311
                        Viscosity (mPa s)  =   1.00438
                        Activity of water  =   0.972
                 Ionic strength (mol/kgw)  =   1.081e-03
                       Mass of water (kg)  =   1.000e+00
                 Total alkalinity (eq/kg)  =  -1.974e-14
                       Total CO2 (mol/kg)  =   1.703e+00
                         Temperature (°C)  =  25.00
                           Pressure (atm)  = 421.10
                  Electrical balance (eq)  =   1.974e-14
 Percent error, 100*(Cat-|An|)/(Cat+|An|)  =   0.00
                               Iterations  =   7
                                  Total H  = 1.110146e+02
                                  Total O  = 5.891406e+01

----------------------------Distribution of species----------------------------

                                               Log       Log       Log    mole V
   Species          Molality    Activity  Molality  Activity     Gamma   cm³/mol

   H+              1.081e-03   1.044e-03    -2.966    -2.981    -0.015      0.00
   OH-             1.389e-11   1.339e-11   -10.857   -10.873    -0.016     -2.72
   H2O             5.551e+01   9.718e-01     1.744    -0.012     0.000     17.74
C(4)          1.703e+00
   CO2             1.607e+00   1.608e+00     0.206     0.206     0.000     34.24
   (CO2)2          4.743e-02   4.744e-02    -1.324    -1.324     0.000     68.48
   HCO3-           1.081e-03   1.043e-03    -2.966    -2.982    -0.016     25.85
   CO3-2           8.481e-11   7.351e-11   -10.072   -10.134    -0.062     -0.40
H(0)          9.468e-18
   H2              4.734e-18   4.735e-18   -17.325   -17.325     0.000     28.43
O(0)          0.000e+00
   O2              0.000e+00   0.000e+00   -58.138   -58.137     0.000     29.85

------------------------------Saturation indices-------------------------------

  Phase               SI** log IAP   log K(298 K, 421 atm)

  CO2(g)            1.93      0.21   -1.72  CO2	 Pressure 421.1 atm, phi 0.202
  H2(g)           -14.01    -17.32   -3.31  H2
  H2O(g)           -1.38     -0.01    1.37  H2O
  O2(g)           -55.02    -58.14   -3.11  O2

**For a gas, SI = log10(fugacity). Fugacity = pressure * phi / 1 atm.
  For ideal gases, phi = 1.

------------------
End of simulation.
------------------

-------------------------------------
Reading input data for simulation 24.
-------------------------------------

		SOLUTION 1
	 temp 25
	 pH 3 charge
	C(4) 1 CO2(g)   2.6445e+00
	pressure   4.4110e+02
	END
-------------------------------------------
Beginning of initial solution calculations.
-------------------------------------------

Initial solution 1.	

-----------------------------Solution composition------------------------------

	Elements           Molality       Moles

	C(4)              1.714e+00   1.714e+00  Equilibrium with CO2(g)

----------------------------Description of solution----------------------------

                                       pH  =   2.976      Charge balance
                                       pe  =   4.000    
      Specific Conductance (µS/cm,  25°C)  = 304
                          Density (g/cm³)  =   1.03146
                               Volume (L)  =   1.04264
                        Viscosity (mPa s)  =   1.00514
                        Activity of water  =   0.972
                 Ionic strength (mol/kgw)  =   1.095e-03
                       Mass of water (kg)  =   1.000e+00
                 Total alkalinity (eq/kg)  =  -2.104e-14
                       Total CO2 (mol/kg)  =   1.714e+00
                         Temperature (°C)  =  25.00
                           Pressure (atm)  = 441.10
                  Electrical balance (eq)  =   2.104e-14
 Percent error, 100*(Cat-|An|)/(Cat+|An|)  =   0.00
                               Iterations  =   7
                                  Total H  = 1.110146e+02
                                  Total O  = 5.893512e+01

----------------------------Distribution of species----------------------------

                                               Log       Log       Log    mole V
   Species          Molality    Activity  Molality  Activity     Gamma   cm³/mol

   H+              1.095e-03   1.057e-03    -2.961    -2.976    -0.015      0.00
   OH-             1.392e-11   1.342e-11   -10.856   -10.872    -0.016     -2.66
   H2O             5.551e+01   9.717e-01     1.744    -0.012     0.000     17.73
C(4)          1.714e+00
   CO2             1.617e+00   1.617e+00     0.209     0.209     0.000     34.23
   (CO2)2          4.799e-02   4.800e-02    -1.319    -1.319     0.000     68.46
   HCO3-           1.095e-03   1.056e-03    -2.961    -2.976    -0.016     25.90
   CO3-2           8.657e-11   7.497e-11   -10.063   -10.125    -0.062     -0.25
H(0)          9.492e-18
   H2              4.746e-18   4.747e-18   -17.324   -17.324     0.000     28.42
O(0)          0.000e+00
   O2              0.000e+00   0.000e+00   -58.158   -58.158     0.000     29.83

------------------------------Saturation indices-------------------------------

  Phase               SI** log IAP   log K(298 K, 441 atm)

  CO2(g)            1.94      0.21   -1.74  CO2	 Pressure 441.1 atm, phi 0.199
  H2(g)           -14.00    -17.32   -3.32  H2
  H2O(g)           -1.38     -0.01    1.36  H2O
  O2(g)           -55.03    -58.16   -3.13  O2

**For a gas, SI = log10(fugacity). Fugacity = pressure * phi / 1 atm.
  For ideal gases, phi = 1.

------------------
End of simulation.
------------------

-------------------------------------
Reading input data for simulation 25.
-------------------------------------

		SOLUTION 1
	 temp 25
	 pH 3 charge
	C(4) 1 CO2(g)   2.6638e+00
	pressure   4.6110e+02
	END
-------------------------------------------
Beginning of initial solution calculations.
-------------------------------------------

Initial solution 1.	

-----------------------------Solution composition------------------------------

	Elements           Molality       Moles

	C(4)              1.724e+00   1.724e+00  Equilibrium with CO2(g)

----------------------------Description of solution----------------------------

                                       pH  =   2.970      Charge balance
                                       pe  =   4.000    
      Specific Conductance (µS/cm,  25°C)  = 307
                          Density (g/cm³)  =   1.03237
                               Volume (L)  =   1.04218
                        Viscosity (mPa s)  =   1.00591
                        Activity of water  =   0.971
                 Ionic strength (mol/kgw)  =   1.109e-03
                       Mass of water (kg)  =   1.000e+00
                 Total alkalinity (eq/kg)  =  -2.232e-14
                       Total CO2 (mol/kg)  =   1.724e+00
                         Temperature (°C)  =  25.00
                           Pressure (atm)  = 461.10
                  Electrical balance (eq)  =   2.232e-14
 Percent error, 100*(Cat-|An|)/(Cat+|An|)  =   0.00
                               Iterations  =   7
                                  Total H  = 1.110147e+02
                                  Total O  = 5.895602e+01

----------------------------Distribution of species----------------------------

                                               Log       Log       Log    mole V
   Species          Molality    Activity  Molality  Activity     Gamma   cm³/mol

   H+              1.109e-03   1.071e-03    -2.955    -2.970    -0.015      0.00
   OH-             1.396e-11   1.345e-11   -10.855   -10.871    -0.016     -2.60
   H2O             5.551e+01   9.715e-01     1.744    -0.013     0.000     17.71
C(4)          1.724e+00
   CO2             1.626e+00   1.626e+00     0.211     0.211     0.000     34.22
   (CO2)2          4.854e-02   4.855e-02    -1.314    -1.314     0.000     68.44
   HCO3-           1.109e-03   1.070e-03    -2.955    -2.971    -0.016     25.96
[...]

  Phase               SI** log IAP   log K(373 K, 381 atm)

  CO2(g)            2.27      0.08   -2.18  CO2	 Pressure 381.1 atm, phi 0.486
  H2(g)           -14.50    -17.75   -3.25  H2
  H2O(g)            0.08     -0.01   -0.09  H2O
  O2(g)           -34.56    -37.85   -3.29  O2

**For a gas, SI = log10(fugacity). Fugacity = pressure * phi / 1 atm.
  For ideal gases, phi = 1.

------------------
End of simulation.
------------------

--------------------------------------
Reading input data for simulation 106.
--------------------------------------

		SOLUTION 1
	 temp 100
	 pH 3 charge
	C(4) 1 CO2(g)   2.6033e+00
	pressure   4.0110e+02
	END
-------------------------------------------
Beginning of initial solution calculations.
-------------------------------------------

Initial solution 1.	

-----------------------------Solution composition------------------------------

	Elements           Molality       Moles

	C(4)              1.513e+00   1.513e+00  Equilibrium with CO2(g)

----------------------------Description of solution----------------------------

                                       pH  =   3.086      Charge balance
                                       pe  =   4.000    
      Specific Conductance (µS/cm, 100°C)  = 516
                          Density (g/cm³)  =   0.98633
                               Volume (L)  =   1.08138
                        Viscosity (mPa s)  =   0.30055
                        Activity of water  =   0.977
                 Ionic strength (mol/kgw)  =   8.494e-04
                       Mass of water (kg)  =   1.000e+00
                 Total alkalinity (eq/kg)  =  -1.036e-14
                       Total CO2 (mol/kg)  =   1.513e+00
                         Temperature (°C)  = 100.00
                           Pressure (atm)  = 401.10
                  Electrical balance (eq)  =   1.036e-14
 Percent error, 100*(Cat-|An|)/(Cat+|An|)  =   0.00
                               Iterations  =   7
                                  Total H  = 1.110141e+02
                                  Total O  = 5.853270e+01

----------------------------Distribution of species----------------------------

                                               Log       Log       Log    mole V
   Species          Molality    Activity  Molality  Activity     Gamma   cm³/mol

   H+              8.494e-04   8.194e-04    -3.071    -3.086    -0.016      0.00
   OH-             1.003e-09   9.659e-10    -8.999    -9.015    -0.016     -7.45
   H2O             5.551e+01   9.767e-01     1.744    -0.010     0.000     18.45
C(4)          1.513e+00
   CO2             1.231e+00   1.231e+00     0.090     0.090     0.000     37.85
   (CO2)2          1.406e-01   1.406e-01    -0.852    -0.852     0.000     75.70
   HCO3-           8.494e-04   8.184e-04    -3.071    -3.087    -0.016     25.79
   CO3-2           1.200e-10   1.034e-10    -9.921    -9.985    -0.065     -4.25
H(0)          3.611e-18
   H2              1.806e-18   1.806e-18   -17.743   -17.743     0.000     28.40
O(0)          2.678e-38
   O2              1.339e-38   1.339e-38   -37.873   -37.873     0.000     32.72

------------------------------Saturation indices-------------------------------

  Phase               SI** log IAP   log K(373 K, 401 atm)

  CO2(g)            2.28      0.09   -2.19  CO2	 Pressure 401.1 atm, phi 0.480
  H2(g)           -14.48    -17.74   -3.26  H2
  H2O(g)            0.09     -0.01   -0.10  H2O
  O2(g)           -34.57    -37.87   -3.30  O2

**For a gas, SI = log10(fugacity). Fugacity = pressure * phi / 1 atm.
  For ideal gases, phi = 1.

------------------
End of simulation.
------------------

--------------------------------------
Reading input data for simulation 107.
--------------------------------------

		SOLUTION 1
	 temp 100
	 pH 3 charge
	C(4) 1 CO2(g)   2.6244e+00
	pressure   4.2110e+02
	END
-------------------------------------------
Beginning of initial solution calculations.
-------------------------------------------

Initial solution 1.	

-----------------------------Solution composition------------------------------

	Elements           Molality       Moles

	C(4)              1.536e+00   1.536e+00  Equilibrium with CO2(g)

----------------------------Description of solution----------------------------

                                       pH  =   3.080      Charge balance
                                       pe  =   4.000    
      Specific Conductance (µS/cm, 100°C)  = 523
                          Density (g/cm³)  =   0.98735
                               Volume (L)  =   1.08131
                        Viscosity (mPa s)  =   0.30122
                        Activity of water  =   0.976
                 Ionic strength (mol/kgw)  =   8.627e-04
                       Mass of water (kg)  =   1.000e+00
                 Total alkalinity (eq/kg)  =  -1.221e-14
                       Total CO2 (mol/kg)  =   1.536e+00
                         Temperature (°C)  = 100.00
                           Pressure (atm)  = 421.10
                  Electrical balance (eq)  =   1.221e-14
 Percent error, 100*(Cat-|An|)/(Cat+|An|)  =   0.00
                               Iterations  =   7
                                  Total H  = 1.110142e+02
                                  Total O  = 5.857998e+01

----------------------------Distribution of species----------------------------

                                               Log       Log       Log    mole V
   Species          Molality    Activity  Molality  Activity     Gamma   cm³/mol

   H+              8.627e-04   8.320e-04    -3.064    -3.080    -0.016      0.00
   OH-             1.005e-09   9.678e-10    -8.998    -9.014    -0.017     -7.52
   H2O             5.551e+01   9.763e-01     1.744    -0.010     0.000     18.43
C(4)          1.536e+00
   CO2             1.247e+00   1.247e+00     0.096     0.096     0.000     37.80
   (CO2)2          1.443e-01   1.443e-01    -0.841    -0.841     0.000     75.61
   HCO3-           8.627e-04   8.310e-04    -3.064    -3.080    -0.016     25.88
   CO3-2           1.223e-10   1.053e-10    -9.912    -9.977    -0.065     -4.04
H(0)          3.655e-18
   H2              1.828e-18   1.828e-18   -17.738   -17.738     0.000     28.39
O(0)          2.525e-38
   O2              1.263e-38   1.263e-38   -37.899   -37.899     0.000     32.67

------------------------------Saturation indices-------------------------------

  Phase               SI** log IAP   log K(373 K, 421 atm)

  CO2(g)            2.30      0.10   -2.20  CO2	 Pressure 421.1 atm, phi 0.474
  H2(g)           -14.47    -17.74   -3.27  H2
  H2O(g)            0.09     -0.01   -0.10  H2O
  O2(g)           -34.59    -37.90   -3.31  O2

**For a gas, SI = log10(fugacity). Fugacity = pressure * phi / 1 atm.
  For ideal gases, phi = 1.

------------------
End of simulation.
------------------

--------------------------------------
Reading input data for simulation 108.
--------------------------------------

		SOLUTION 1
	 temp 100
	 pH 3 charge
	C(4) 1 CO2(g)   2.6445e+00
	pressure   4.4110e+02
	END
-------------------------------------------
Beginning of initial solution calculations.
-------------------------------------------

Initial solution 1.	

-----------------------------Solution composition------------------------------

	Elements           Molality       Moles

	C(4)              1.559e+00   1.559e+00  Equilibrium with CO2(g)

----------------------------Description of solution----------------------------

                                       pH  =   3.073      Charge balance
                                       pe  =   4.000    
      Specific Conductance (µS/cm, 100°C)  = 529
                          Density (g/cm³)  =   0.98836
                               Volume (L)  =   1.08121
                        Viscosity (mPa s)  =   0.30189
                        Activity of water  =   0.976
                 Ionic strength (mol/kgw)  =   8.757e-04
                       Mass of water (kg)  =   1.000e+00
                 Total alkalinity (eq/kg)  =  -1.422e-14
                       Total CO2 (mol/kg)  =   1.559e+00
                         Temperature (°C)  = 100.00
                           Pressure (atm)  = 441.10
                  Electrical balance (eq)  =   1.422e-14
 Percent error, 100*(Cat-|An|)/(Cat+|An|)  =   0.00
                               Iterations  =   7
                                  Total H  = 1.110142e+02
                                  Total O  = 5.862515e+01

----------------------------Distribution of species----------------------------

                                               Log       Log       Log    mole V
   Species          Molality    Activity  Molality  Activity     Gamma   cm³/mol

   H+              8.757e-04   8.444e-04    -3.058    -3.073    -0.016      0.00
   OH-             1.008e-09   9.702e-10    -8.996    -9.013    -0.017     -7.58
   H2O             5.551e+01   9.760e-01     1.744    -0.011     0.000     18.42
C(4)          1.559e+00
   CO2             1.262e+00   1.263e+00     0.101     0.101     0.000     37.76
   (CO2)2          1.479e-01   1.479e-01    -0.830    -0.830     0.000     75.51
   HCO3-           8.757e-04   8.434e-04    -3.058    -3.074    -0.016     25.97
   CO3-2           1.247e-10   1.072e-10    -9.904    -9.970    -0.065     -3.84
H(0)          3.696e-18
   H2              1.848e-18   1.848e-18   -17.733   -17.733     0.000     28.39
O(0)          2.386e-38
   O2              1.193e-38   1.193e-38   -37.923   -37.923     0.000     32.62

------------------------------Saturation indices-------------------------------

  Phase               SI** log IAP   log K(373 K, 441 atm)

  CO2(g)            2.32      0.10   -2.21  CO2	 Pressure 441.1 atm, phi 0.469
  H2(g)           -14.46    -17.73   -3.28  H2
  H2O(g)            0.10     -0.01   -0.11  H2O
  O2(g)           -34.61    -37.92   -3.32  O2

**For a gas, SI = log10(fugacity). Fugacity = pressure * phi / 1 atm.
  For ideal gases, phi = 1.

------------------
End of simulation.
------------------

--------------------------------------
Reading input data for simulation 109.
--------------------------------------

		SOLUTION 1
	 temp 100
	 pH 3 charge
	C(4) 1 CO2(g)   2.6638e+00
	pressure   4.6110e+02
	END
-------------------------------------------
Beginning of initial solution calculations.
-------------------------------------------

Initial solution 1.	

-----------------------------Solution composition------------------------------

	Elements           Molality       Moles

	C(4)              1.581e+00   1.581e+00  Equilibrium with CO2(g)

----------------------------Description of solution----------------------------

                                       pH  =   3.067      Charge balance
                                       pe  =   4.000    
      Specific Conductance (µS/cm, 100°C)  = 536
                          Density (g/cm³)  =   0.98937
                               Volume (L)  =   1.08109
                        Viscosity (mPa s)  =   0.30255
                        Activity of water  =   0.976
                 Ionic strength (mol/kgw)  =   8.887e-04
                       Mass of water (kg)  =   1.000e+00
                 Total alkalinity (eq/kg)  =  -1.641e-14
                       Total CO2 (mol/kg)  =   1.581e+00
                         Temperature (°C)  = 100.00
                           Pressure (atm)  = 461.10
                  Electrical balance (eq)  =   1.641e-14
 Percent error, 100*(Cat-|An|)/(Cat+|An|)  =   0.00
                               Iterations  =   7
                                  Total H  = 1.110142e+02
                                  Total O  = 5.866915e+01

----------------------------Distribution of species----------------------------

                                               Log       Log       Log    mole V
   Species          Molality    Activity  Molality  Activity     Gamma   cm³/mol

   H+              8.887e-04   8.567e-04    -3.051    -3.067    -0.016      0.00
   OH-             1.011e-09   9.730e-10    -8.995    -9.012    -0.017     -7.65
   H2O             5.551e+01   9.757e-01     1.744    -0.011     0.000     18.40
C(4)          1.581e+00
   CO2             1.277e+00   1.277e+00     0.106     0.106     0.000     37.71
   (CO2)2          1.514e-01   1.515e-01    -0.820    -0.820     0.000     75.43
   HCO3-           8.887e-04   8.557e-04    -3.051    -3.068    -0.016     26.06
   CO3-2           1.270e-10   1.092e-10    -9.896    -9.962    -0.066     -3.65
H(0)          3.735e-18
   H2              1.868e-18   1.868e-18   -17.729   -17.729     0.000     28.38
O(0)          2.257e-38
   O2              1.129e-38   1.129e-38   -37.947   -37.947     0.000     32.57

------------------------------Saturation indices-------------------------------

  Phase               SI** log IAP   log K(373 K, 461 atm)

  CO2(g)            2.33      0.11   -2.23  CO2	 Pressure 461.1 atm, phi 0.465
  H2(g)           -14.44    -17.73   -3.29  H2
  H2O(g)            0.10     -0.01   -0.12  H2O
  O2(g)           -34.62    -37.95   -3.33  O2

**For a gas, SI = log10(fugacity). Fugacity = pressure * phi / 1 atm.
  For ideal gases, phi = 1.

------------------
End of simulation.
------------------

--------------------------------------
Reading input data for simulation 110.
--------------------------------------

		SOLUTION 1
	 temp 100
	 pH 3 charge
	C(4) 1 CO2(g)   2.6822e+00
	pressure   4.8110e+02
	END
-------------------------------------------
Beginning of initial solution calculations.
-------------------------------------------

Initial solution 1.	

-----------------------------Solution composition------------------------------

	Elements           Molality       Moles

	C(4)              1.602e+00   1.602e+00  Equilibrium with CO2(g)

----------------------------Description of solution----------------------------

                                       pH  =   3.061      Charge balance
                                       pe  =   4.000    
      Specific Conductance (µS/cm, 100°C)  = 542
                          Density (g/cm³)  =   0.99036
                               Volume (L)  =   1.08094
                        Viscosity (mPa s)  =   0.30321
                        Activity of water  =   0.975
                 Ionic strength (mol/kgw)  =   9.014e-04
                       Mass of water (kg)  =   1.000e+00
                 Total alkalinity (eq/kg)  =  -1.873e-14
                       Total CO2 (mol/kg)  =   1.602e+00
                         Temperature (°C)  = 100.00
                           Pressure (atm)  = 481.10
                  Electrical balance (eq)  =   1.873e-14
 Percent error, 100*(Cat-|An|)/(Cat+|An|)  =   0.00
                               Iterations  =   7
                                  Total H  = 1.110142e+02
                                  Total O  = 5.871094e+01

----------------------------Distribution of species----------------------------

                                               Log       Log       Log    mole V
   Species          Molality    Activity  Molality  Activity     Gamma   cm³/mol

   H+              9.014e-04   8.688e-04    -3.045    -3.061    -0.016      0.00
   OH-             1.015e-09   9.764e-10    -8.994    -9.010    -0.017     -7.71
   H2O             5.551e+01   9.754e-01     1.744    -0.011     0.000     18.39
C(4)          1.602e+00
   CO2             1.291e+00   1.292e+00     0.111     0.111     0.000     37.67
   (CO2)2          1.548e-01   1.548e-01    -0.810    -0.810     0.000     75.34
   HCO3-           9.014e-04   8.677e-04    -3.045    -3.062    -0.017     26.15
   CO3-2           1.294e-10   1.111e-10    -9.888    -9.954    -0.066     -3.45
H(0)          3.771e-18
   H2              1.886e-18   1.886e-18   -17.725   -17.724     0.000     28.37
O(0)          2.139e-38
   O2              1.070e-38   1.070e-38   -37.971   -37.971     0.000     32.52

------------------------------Saturation indices-------------------------------

  Phase               SI** log IAP   log K(373 K, 481 atm)

  CO2(g)            2.35      0.11   -2.24  CO2	 Pressure 481.1 atm, phi 0.462
  H2(g)           -14.43    -17.72   -3.29  H2
  H2O(g)            0.11     -0.01   -0.12  H2O
  O2(g)           -34.63    -37.97   -3.34  O2

**For a gas, SI = log10(fugacity). Fugacity = pressure * phi / 1 atm.
  For ideal gases, phi = 1.

------------------
End of simulation.
------------------

--------------------------------------
Reading input data for simulation 111.
--------------------------------------

		SOLUTION 1
	 temp 100
	 pH 3 charge
	C(4) 1 CO2(g)   2.6999e+00
	pressure   5.0110e+02
	END
-------------------------------------------
Beginning of initial solution calculations.
-------------------------------------------

Initial solution 1.	

-----------------------------Solution composition------------------------------

	Elements           Molality       Moles

	C(4)              1.622e+00   1.622e+00  Equilibrium with CO2(g)

----------------------------Description of solution----------------------------

                                       pH  =   3.055      Charge balance
                                       pe  =   4.000    
      Specific Conductance (µS/cm, 100°C)  = 549
                          Density (g/cm³)  =   0.99135
                               Volume (L)  =   1.08076
                        Viscosity (mPa s)  =   0.30386
                        Activity of water  =   0.975
                 Ionic strength (mol/kgw)  =   9.140e-04
                       Mass of water (kg)  =   1.000e+00
                 Total alkalinity (eq/kg)  =  -2.124e-14
                       Total CO2 (mol/kg)  =   1.622e+00
                         Temperature (°C)  = 100.00
                           Pressure (atm)  = 501.10
                  Electrical balance (eq)  =   2.124e-14
 Percent error, 100*(Cat-|An|)/(Cat+|An|)  =   0.00
                               Iterations  =   7
                                  Total H  = 1.110143e+02
                                  Total O  = 5.875159e+01

----------------------------Distribution of species----------------------------

                                               Log       Log       Log    mole V
   Species          Molality    Activity  Molality  Activity     Gamma   cm³/mol

   H+              9.140e-04   8.808e-04    -3.039    -3.055    -0.016      0.00
   OH-             1.019e-09   9.801e-10    -8.992    -9.009    -0.017     -7.77
   H2O             5.551e+01   9.751e-01     1.744    -0.011     0.000     18.37
C(4)          1.622e+00
   CO2             1.305e+00   1.305e+00     0.116     0.116     0.000     37.62
   (CO2)2          1.581e-01   1.581e-01    -0.801    -0.801     0.000     75.25
   HCO3-           9.140e-04   8.797e-04    -3.039    -3.056    -0.017     26.24
   CO3-2           1.318e-10   1.131e-10    -9.880    -9.947    -0.066     -3.26
H(0)          3.805e-18
   H2              1.903e-18   1.903e-18   -17.721   -17.721     0.000     28.36
O(0)          2.030e-38
   O2              1.015e-38   1.015e-38   -37.994   -37.993     0.000     32.48

------------------------------Saturation indices-------------------------------

  Phase               SI** log IAP   log K(373 K, 501 atm)

  CO2(g)            2.36      0.12   -2.25  CO2	 Pressure 501.1 atm, phi 0.459
  H2(g)           -14.42    -17.72   -3.30  H2
  H2O(g)            0.11     -0.01   -0.13  H2O
  O2(g)           -34.65    -37.99   -3.34  O2

**For a gas, SI = log10(fugacity). Fugacity = pressure * phi / 1 atm.
  For ideal gases, phi = 1.

------------------
End of simulation.
------------------

--------------------------------------
Reading input data for simulation 112.
--------------------------------------

	END
------------------
End of simulation.
------------------

--------------------------------------
Reading input data for simulation 113.
--------------------------------------

