WARNING: Database file from DATABASE keyword is used; command line argument ignored.
   Input file: CO2_Na2SO4
  Output file: CO2_Na2SO4.out
Database file: ../database/pitzer.dat

------------------
Reading data base.
------------------

	SOLUTION_MASTER_SPECIES
	SOLUTION_SPECIES
	PHASES
	PITZER
	EXCHANGE_MASTER_SPECIES
	EXCHANGE_SPECIES
	SURFACE_MASTER_SPECIES
	SURFACE_SPECIES
	END
------------------------------------
Reading input data for simulation 1.
------------------------------------

	DATABASE ../database/pitzer.dat
	SOLUTION 1
	 pH 7 charge
	 Na 2e3
	 S(6) 1e3
	 temp 25
	EQUILIBRIUM_PHASES
	 CO2(g) 1.9
	GAS_PHASE 1
	     fixed_volume
	     CO2(g) 0
		 H2O(g) 0
	REACTION_TEMPERATURE
	 25 160 in 10
	USER_GRAPH
	 -plot_csv_file CO2_Na2SO4.dat
	 -axis_titles "Temp / oC" "CO2 solubility at 80 bar / (mol/kgw)"
	 -connect_simulations false
	 10 graph_x tc
	 20 graph_y tot("C")
	END
-------------------------------------------
Beginning of initial solution calculations.
-------------------------------------------

Initial solution 1.	

-----------------------------Solution composition------------------------------

	Elements           Molality       Moles

	Na                2.000e+00   2.000e+00
	S(6)              1.000e+00   1.000e+00

----------------------------Description of solution----------------------------

                                       pH  =   7.385      Charge balance
                                       pe  =   4.000    
       Specific Conductance (µS/cm, 25°C)  = 35530
                          Density (g/cm³)  =   1.11227
                               Volume (L)  =   1.02677
                        Activity of water  =   0.966
                           Ionic strength  =   3.000e+00
                       Mass of water (kg)  =   1.000e+00
                 Total alkalinity (eq/kg)  =   3.675e-15
                    Total carbon (mol/kg)  =   0.000e+00
                       Total CO2 (mol/kg)  =   0.000e+00
                         Temperature (°C)  =  25.00
                  Electrical balance (eq)  =  -8.304e-10
 Percent error, 100*(Cat-|An|)/(Cat+|An|)  =  -0.00
                               Iterations  =  11
                         Gamma iterations  =   4
                      Osmotic coefficient  =   0.64143
                         Density of water  =   0.99704
                                  Total H  = 1.110124e+02
                                  Total O  = 5.950622e+01

----------------------------Distribution of species----------------------------

                                                    MacInnes  MacInnes
                                MacInnes       Log       Log       Log    mole V
   Species          Molality    Activity  Molality  Activity     Gamma   cm³/mol

   OH-             4.346e-07   2.370e-07    -6.362    -6.625    -0.263      0.77
   H+              1.014e-07   4.125e-08    -6.994    -7.385    -0.391      0.00
   H2O             5.551e+01   9.659e-01     1.744    -0.015     0.000     18.07
Na            2.000e+00
   Na+             2.000e+00   8.988e-01     0.301    -0.046    -0.347      0.48
S(6)          1.000e+00
   SO4-2           1.000e+00   4.298e-02    -0.000    -1.367    -1.367     22.84
   HSO4-           3.332e-07   1.689e-07    -6.477    -6.772    -0.295     41.62

------------------------------Saturation indices-------------------------------

  Phase               SI** log IAP   log K(298 K,   1 atm)

  H2O(g)           -1.52     -0.02    1.50  H2O
  Mirabilite       -0.40     -1.61   -1.21  Na2SO4:10H2O
  Thenardite       -1.11     -1.46   -0.35  Na2SO4

**For a gas, SI = log10(fugacity). Fugacity = pressure * phi / 1 atm.
  For ideal gases, phi = 1.

-----------------------------------------
Beginning of batch-reaction calculations.
-----------------------------------------

Reaction step 1.

WARNING: Numerical method failed, switching to numerical derivatives.
Using solution 1.	
Using pure phase assemblage 1.	
Using gas phase 1.	
Using temperature 1.	

-----------------------------------Gas phase-----------------------------------

Total pressure: 65.13      atmospheres          (Peng-Robinson calculation)
    Gas volume:   1.00e+00 liters
  Molar volume:   1.09e-01 liters/mole
   P * Vm / RT:  0.28983  (Compressibility Factor Z) 

                                                        Moles in gas
                                            ----------------------------------
Component         log P           P    phi     Initial       Final       Delta

CO2(g)             1.81   6.502e+01  0.657   0.000e+00   9.170e+00   9.170e+00
H2O(g)            -0.97   1.067e-01  0.292   0.000e+00   1.504e-02   1.504e-02

-------------------------------Phase assemblage--------------------------------

                                                      Moles in assemblage
Phase               SI  log IAP  log K(T, P)   Initial       Final       Delta

CO2(g)            1.63     0.14     -1.49    1.000e+01           0  -1.000e+01

-----------------------------Solution composition------------------------------

	Elements           Molality       Moles

	C                 8.306e-01   8.303e-01
	Na                2.001e+00   2.000e+00
	S                 1.000e+00   1.000e+00

----------------------------Description of solution----------------------------

                                       pH  =   3.436      Charge balance
                                       pe  =   4.000      Adjusted to redox equilibrium
       Specific Conductance (µS/cm, 25°C)  = 43189
                          Density (g/cm³)  =   1.12317
                               Volume (L)  =   1.04909
                        Activity of water  =   0.945
                           Ionic strength  =   2.999e+00
                       Mass of water (kg)  =   9.997e-01
                 Total alkalinity (eq/kg)  =   1.401e-14
                       Total CO2 (mol/kg)  =   8.306e-01
                         Temperature (°C)  =  25.00
                           Pressure (atm)  = 65.13
                  Electrical balance (eq)  =  -8.305e-10
 Percent error, 100*(Cat-|An|)/(Cat+|An|)  =  -0.00
                               Iterations  = 145
                         Gamma iterations  =   4
                      Osmotic coefficient  =   0.82279
                         Density of water  =   0.99992
                                  Total H  = 1.109824e+02
                                  Total O  = 6.115173e+01

----------------------------Distribution of species----------------------------

                                                    MacInnes  MacInnes
                                MacInnes       Log       Log       Log    mole V
   Species          Molality    Activity  Molality  Activity     Gamma   cm³/mol

   H+              9.037e-04   3.663e-04    -3.044    -3.436    -0.392      0.00
   OH-             4.959e-11   2.730e-11   -10.305   -10.564    -0.259      0.97
   H2O             5.551e+01   9.448e-01     1.744    -0.025     0.000     18.02
C(4)          8.306e-01
   CO2             8.264e-01   1.367e+00    -0.083     0.136     0.219     29.36
   HCO3-           4.193e-03   1.676e-03    -2.377    -2.776    -0.398     31.34
   CO3-2           3.900e-09   2.246e-10    -8.409    -9.649    -1.240      4.73
Na            2.001e+00
   Na+             2.001e+00   1.017e+00     0.301     0.007    -0.294      0.68
S(6)          1.000e+00
   SO4-2           9.971e-01   5.031e-02    -0.001    -1.298    -1.297     23.56
   HSO4-           3.289e-03   1.675e-03    -2.483    -2.776    -0.293     41.45

------------------------------Saturation indices-------------------------------

  Phase               SI** log IAP   log K(298 K,  65 atm)

  Burkeite        -11.54    -12.20   -0.66  Na6CO3(SO4)2
  CO2(g)            1.63      0.14   -1.49  CO2	 Pressure  65.0 atm, phi 0.657
  H2O(g)           -1.51     -0.02    1.48  H2O	 Pressure   0.1 atm, phi 0.292
  Mirabilite       -0.33     -1.53   -1.20  Na2SO4:10H2O
  Nahcolite        -2.33    -13.08  -10.75  NaHCO3
  Natron           -8.84     -9.88   -1.04  Na2CO3:10H2O
  Thenardite       -0.97     -1.28   -0.32  Na2SO4
  Trona           -11.44    -22.76  -11.32  Na3H(CO3)2:2H2O

**For a gas, SI = log10(fugacity). Fugacity = pressure * phi / 1 atm.
  For ideal gases, phi = 1.

Reaction step 2.

WARNING: Numerical method failed, switching to numerical derivatives.
Using solution 1.	
Using pure phase assemblage 1.	
Using gas phase 1.	
Using temperature 1.	

-----------------------------------Gas phase-----------------------------------

Total pressure: 79.86      atmospheres          (Peng-Robinson calculation)
    Gas volume:   1.00e+00 liters
  Molar volume:   1.48e-01 liters/mole
   P * Vm / RT:  0.45860  (Compressibility Factor Z) 

                                                        Moles in gas
                                            ----------------------------------
Component         log P           P    phi     Initial       Final       Delta

CO2(g)             1.90   7.966e+01  0.649   0.000e+00   6.760e+00   6.760e+00
H2O(g)            -0.70   2.000e-01  0.364   0.000e+00   1.697e-02   1.697e-02

-------------------------------Phase assemblage--------------------------------

                                                      Moles in assemblage
Phase               SI  log IAP  log K(T, P)   Initial       Final       Delta

CO2(g)            1.71     0.06     -1.65    1.000e+01   2.537e+00  -7.463e+00

-----------------------------Solution composition------------------------------

	Elements           Molality       Moles

	C                 7.036e-01   7.033e-01
	Na                2.001e+00   2.000e+00
	S                 1.000e+00   1.000e+00

----------------------------Description of solution----------------------------

                                       pH  =   3.548      Charge balance
                                       pe  =   4.000      Adjusted to redox equilibrium
       Specific Conductance (µS/cm, 40°C)  = 59915
                          Density (g/cm³)  =   1.11783
                               Volume (L)  =   1.04907
                        Activity of water  =   0.947
                           Ionic strength  =   2.998e+00
                       Mass of water (kg)  =   9.996e-01
                 Total alkalinity (eq/kg)  =   6.350e-14
                       Total CO2 (mol/kg)  =   7.036e-01
                         Temperature (°C)  =  40.00
                           Pressure (atm)  = 79.86
                  Electrical balance (eq)  =  -8.307e-10
 Percent error, 100*(Cat-|An|)/(Cat+|An|)  =  -0.00
                               Iterations  = 134
                         Gamma iterations  =   4
                      Osmotic coefficient  =   0.82099
                         Density of water  =   0.99564
                                  Total H  = 1.109785e+02
                                  Total O  = 6.089581e+01

----------------------------Distribution of species----------------------------

                                                    MacInnes  MacInnes
                                MacInnes       Log       Log       Log    mole V
   Species          Molality    Activity  Molality  Activity     Gamma   cm³/mol

   H+              7.449e-04   2.831e-04    -3.128    -3.548    -0.420      0.00
   OH-             1.840e-10   1.031e-10    -9.735    -9.987    -0.252      1.31
   H2O             5.551e+01   9.467e-01     1.744    -0.024     0.000     18.09
C(4)          7.036e-01
   CO2             6.986e-01   1.156e+00    -0.156     0.063     0.219     26.84
   HCO3-           4.925e-03   2.080e-03    -2.308    -2.682    -0.374     31.51
   CO3-2           7.766e-09   4.668e-10    -8.110    -9.331    -1.221      5.21
Na            2.001e+00
   Na+             2.001e+00   1.017e+00     0.301     0.007    -0.294      1.09
S(6)          1.000e+00
   SO4-2           9.962e-01   5.374e-02    -0.002    -1.270    -1.268     23.93
   HSO4-           4.180e-03   2.100e-03    -2.379    -2.678    -0.299     42.24

------------------------------Saturation indices-------------------------------

  Phase               SI** log IAP   log K(313 K,  80 atm)

  Burkeite        -11.18    -11.83   -0.65  Na6CO3(SO4)2
  CO2(g)            1.71      0.06   -1.65  CO2	 Pressure  79.7 atm, phi 0.649
  H2O(g)           -1.14     -0.02    1.11  H2O	 Pressure   0.2 atm, phi 0.364
  Mirabilite       -0.89     -1.49   -0.60  Na2SO4:10H2O
  Nahcolite        -2.12    -12.87  -10.75  NaHCO3
  Natron           -8.48     -9.55   -1.08  Na2CO3:10H2O
  Thenardite       -0.94     -1.26   -0.31  Na2SO4
  Trona           -10.93    -22.24  -11.31  Na3H(CO3)2:2H2O

**For a gas, SI = log10(fugacity). Fugacity = pressure * phi / 1 atm.
  For ideal gases, phi = 1.

Reaction step 3.

WARNING: Numerical method failed, switching to numerical derivatives.
Using solution 1.	
Using pure phase assemblage 1.	
Using gas phase 1.	
Using temperature 1.	

-----------------------------------Gas phase-----------------------------------

Total pressure: 79.97      atmospheres          (Peng-Robinson calculation)
    Gas volume:   1.00e+00 liters
  Molar volume:   2.05e-01 liters/mole
   P * Vm / RT:  0.60831  (Compressibility Factor Z) 

                                                        Moles in gas
                                            ----------------------------------
Component         log P           P    phi     Initial       Final       Delta

CO2(g)             1.90   7.964e+01  0.702   0.000e+00   4.862e+00   4.862e+00
H2O(g)            -0.48   3.304e-01  0.468   0.000e+00   2.017e-02   2.017e-02

-------------------------------Phase assemblage--------------------------------

                                                      Moles in assemblage
Phase               SI  log IAP  log K(T, P)   Initial       Final       Delta

CO2(g)            1.75    -0.02     -1.77    1.000e+01   4.556e+00  -5.444e+00

-----------------------------Solution composition------------------------------

	Elements           Molality       Moles

	C                 5.822e-01   5.819e-01
	Na                2.001e+00   2.000e+00
	S                 1.000e+00   1.000e+00

----------------------------Description of solution----------------------------

                                       pH  =   3.700      Charge balance
                                       pe  =   4.000      Adjusted to redox equilibrium
       Specific Conductance (µS/cm, 55°C)  = 77851
                          Density (g/cm³)  =   1.11013
                               Volume (L)  =   1.05149
                        Activity of water  =   0.949
                           Ionic strength  =   2.997e+00
                       Mass of water (kg)  =   9.995e-01
                 Total alkalinity (eq/kg)  =   6.181e-14
                       Total CO2 (mol/kg)  =   5.822e-01
                         Temperature (°C)  =  55.00
                           Pressure (atm)  = 79.97
                  Electrical balance (eq)  =  -8.307e-10
 Percent error, 100*(Cat-|An|)/(Cat+|An|)  =  -0.00
                               Iterations  = 132
                         Gamma iterations  =   4
                      Osmotic coefficient  =   0.81846
                         Density of water  =   0.98911
                                  Total H  = 1.109721e+02
                                  Total O  = 6.064984e+01

----------------------------Distribution of species----------------------------

                                                    MacInnes  MacInnes
                                MacInnes       Log       Log       Log    mole V
   Species          Molality    Activity  Molality  Activity     Gamma   cm³/mol

   H+              5.679e-04   1.995e-04    -3.246    -3.700    -0.454      0.00
   OH-             6.375e-10   3.656e-10    -9.196    -9.437    -0.241      1.35
   H2O             5.551e+01   9.485e-01     1.744    -0.023     0.000     18.21
C(4)          5.822e-01
   CO2             5.766e-01   9.539e-01    -0.239    -0.020     0.219     25.06
   HCO3-           5.541e-03   2.487e-03    -2.256    -2.604    -0.348     31.50
   CO3-2           1.456e-08   9.159e-10    -7.837    -9.038    -1.201      5.03
Na            2.001e+00
   Na+             2.001e+00   1.004e+00     0.301     0.002    -0.299      1.35
S(6)          1.000e+00
   SO4-2           9.955e-01   5.761e-02    -0.002    -1.240    -1.238     23.54
   HSO4-           4.973e-03   2.479e-03    -2.303    -2.606    -0.302     42.76

------------------------------Saturation indices-------------------------------

  Phase               SI** log IAP   log K(328 K,  80 atm)

  Burkeite        -10.85    -11.51   -0.66  Na6CO3(SO4)2
  CO2(g)            1.75     -0.02   -1.77  CO2	 Pressure  79.6 atm, phi 0.702
  H2O(g)           -0.81     -0.02    0.79  H2O	 Pressure   0.3 atm, phi 0.468
  Mirabilite       -1.26     -1.47   -0.20  Na2SO4:10H2O
  Nahcolite        -1.99    -12.74  -10.75  NaHCO3
  Natron           -8.20     -9.26   -1.07  Na2CO3:10H2O
  Thenardite       -0.92     -1.24   -0.32  Na2SO4
  Trona           -10.50    -21.82  -11.31  Na3H(CO3)2:2H2O

**For a gas, SI = log10(fugacity). Fugacity = pressure * phi / 1 atm.
  For ideal gases, phi = 1.

Reaction step 4.

WARNING: Numerical method failed, switching to numerical derivatives.
Using solution 1.	
Using pure phase assemblage 1.	
Using gas phase 1.	
Using temperature 1.	

-----------------------------------Gas phase-----------------------------------

Total pressure: 80.26      atmospheres          (Peng-Robinson calculation)
    Gas volume:   1.00e+00 liters
  Molar volume:   2.41e-01 liters/mole
   P * Vm / RT:  0.68592  (Compressibility Factor Z) 

                                                        Moles in gas
                                            ----------------------------------
Component         log P           P    phi     Initial       Final       Delta

CO2(g)             1.90   7.968e+01  0.742   0.000e+00   4.126e+00   4.126e+00
H2O(g)            -0.24   5.738e-01  0.532   0.000e+00   2.971e-02   2.971e-02

-------------------------------Phase assemblage--------------------------------

                                                      Moles in assemblage
Phase               SI  log IAP  log K(T, P)   Initial       Final       Delta

CO2(g)            1.77    -0.09     -1.86    1.000e+01   5.375e+00  -4.625e+00

-----------------------------Solution composition------------------------------

	Elements           Molality       Moles

	C                 5.001e-01   4.998e-01
	Na                2.001e+00   2.000e+00
	S                 1.001e+00   1.000e+00

----------------------------Description of solution----------------------------

                                       pH  =   3.869      Charge balance
                                       pe  =   4.000      Adjusted to redox equilibrium
       Specific Conductance (µS/cm, 70°C)  = 97071
                          Density (g/cm³)  =   1.10147
                               Volume (L)  =   1.05632
                        Activity of water  =   0.949
                           Ionic strength  =   2.997e+00
                       Mass of water (kg)  =   9.994e-01
                 Total alkalinity (eq/kg)  =   9.697e-14
                       Total CO2 (mol/kg)  =   5.001e-01
                         Temperature (°C)  =  70.00
                           Pressure (atm)  = 80.26
                  Electrical balance (eq)  =  -8.310e-10
 Percent error, 100*(Cat-|An|)/(Cat+|An|)  =  -0.00
                               Iterations  = 130
                         Gamma iterations  =   4
                      Osmotic coefficient  =   0.82173
                         Density of water  =   0.98127
                                  Total H  = 1.109530e+02
                                  Total O  = 6.047614e+01

----------------------------Distribution of species----------------------------

                                                    MacInnes  MacInnes
                                MacInnes       Log       Log       Log    mole V
   Species          Molality    Activity  Molality  Activity     Gamma   cm³/mol

   H+              4.208e-04   1.352e-04    -3.376    -3.869    -0.493      0.00
   OH-             2.022e-09   1.191e-09    -8.694    -8.924    -0.230      1.19
   H2O             5.551e+01   9.495e-01     1.744    -0.023     0.000     18.36
C(4)          5.001e-01
   CO2             4.939e-01   8.170e-01    -0.306    -0.088     0.219     23.79
   HCO3-           6.221e-03   2.979e-03    -2.206    -2.526    -0.320     31.35
   CO3-2           2.622e-08   1.728e-09    -7.581    -8.762    -1.181      4.44
Na            2.001e+00
   Na+             2.001e+00   9.858e-01     0.301    -0.006    -0.308      1.53
S(6)          1.001e+00
   SO4-2           9.948e-01   6.223e-02    -0.002    -1.206    -1.204     22.77
   HSO4-           5.800e-03   2.879e-03    -2.237    -2.541    -0.304     43.07

------------------------------Saturation indices-------------------------------

  Phase               SI** log IAP   log K(343 K,  80 atm)

  Burkeite        -10.55    -11.21   -0.66  Na6CO3(SO4)2
  CO2(g)            1.77     -0.09   -1.86  CO2	 Pressure  79.7 atm, phi 0.742
  H2O(g)           -0.52     -0.02    0.49  H2O	 Pressure   0.6 atm, phi 0.532
  Mirabilite       -1.40     -1.44   -0.04  Na2SO4:10H2O
  Nahcolite        -1.89    -12.64  -10.75  NaHCO3
  Natron           -7.94     -9.00   -1.06  Na2CO3:10H2O
  Thenardite       -0.90     -1.22   -0.32  Na2SO4
  Trona           -10.14    -21.46  -11.32  Na3H(CO3)2:2H2O

**For a gas, SI = log10(fugacity). Fugacity = pressure * phi / 1 atm.
  For ideal gases, phi = 1.

Reaction step 5.

WARNING: Numerical method failed, switching to numerical derivatives.
Using solution 1.	
Using pure phase assemblage 1.	
Using gas phase 1.	
Using temperature 1.	

-----------------------------------Gas phase-----------------------------------

Total pressure: 80.73      atmospheres          (Peng-Robinson calculation)
    Gas volume:   1.00e+00 liters
  Molar volume:   2.69e-01 liters/mole
   P * Vm / RT:  0.73891  (Compressibility Factor Z) 

                                                        Moles in gas
                                            ----------------------------------
Component         log P           P    phi     Initial       Final       Delta

CO2(g)             1.90   7.975e+01  0.776   0.000e+00   3.673e+00   3.673e+00
H2O(g)            -0.01   9.719e-01  0.581   0.000e+00   4.475e-02   4.475e-02

-------------------------------Phase assemblage--------------------------------

                                                      Moles in assemblage
Phase               SI  log IAP  log K(T, P)   Initial       Final       Delta

CO2(g)            1.79    -0.14     -1.93    1.000e+01   5.883e+00  -4.117e+00

-----------------------------Solution composition------------------------------

	Elements           Molality       Moles

	C                 4.453e-01   4.449e-01
	Na                2.002e+00   2.000e+00
	S                 1.001e+00   1.000e+00

----------------------------Description of solution----------------------------

                                       pH  =   4.050      Charge balance
                                       pe  =   4.000      Adjusted to redox equilibrium
       Specific Conductance (µS/cm, 85°C)  = 117082
                          Density (g/cm³)  =   1.09198
                               Volume (L)  =   1.06304
                        Activity of water  =   0.950
                           Ionic strength  =   2.996e+00
                       Mass of water (kg)  =   9.991e-01
                 Total alkalinity (eq/kg)  =   1.652e-13
                       Total CO2 (mol/kg)  =   4.453e-01
                         Temperature (°C)  =  85.00
                           Pressure (atm)  = 80.73
                  Electrical balance (eq)  =  -8.316e-10
 Percent error, 100*(Cat-|An|)/(Cat+|An|)  =  -0.00
                               Iterations  = 133
                         Gamma iterations  =   4
                      Osmotic coefficient  =   0.82881
                         Density of water  =   0.97225
                                  Total H  = 1.109229e+02
                                  Total O  = 6.035131e+01

----------------------------Distribution of species----------------------------

                                                    MacInnes  MacInnes
                                MacInnes       Log       Log       Log    mole V
   Species          Molality    Activity  Molality  Activity     Gamma   cm³/mol

   H+              3.068e-04   8.917e-05    -3.513    -4.050    -0.537      0.00
   OH-             5.900e-09   3.579e-09    -8.229    -8.446    -0.217      0.85
   H2O             5.551e+01   9.498e-01     1.744    -0.022     0.000     18.53
C(4)          4.453e-01
   CO2             4.383e-01   7.251e-01    -0.358    -0.140     0.219     22.84
   HCO3-           6.987e-03   3.576e-03    -2.156    -2.447    -0.291     31.08
   CO3-2           4.554e-08   3.136e-09    -7.342    -8.504    -1.162      3.52
Na            2.002e+00
   Na+             2.002e+00   9.624e-01     0.301    -0.017    -0.318      1.68
S(6)          1.001e+00
   SO4-2           9.943e-01   6.733e-02    -0.003    -1.172    -1.169     21.74
   HSO4-           6.680e-03   3.307e-03    -2.175    -2.481    -0.305     43.24

------------------------------Saturation indices-------------------------------

  Phase               SI** log IAP   log K(358 K,  81 atm)

  Burkeite        -10.29    -10.95   -0.66  Na6CO3(SO4)2
  CO2(g)            1.79     -0.14   -1.93  CO2	 Pressure  79.8 atm, phi 0.776
  H2O(g)           -0.25     -0.02    0.23  H2O	 Pressure   1.0 atm, phi 0.581
  Mirabilite       -1.29     -1.43   -0.14  Na2SO4:10H2O
  Nahcolite        -1.82    -12.57  -10.75  NaHCO3
  Natron           -7.71     -8.76   -1.05  Na2CO3:10H2O
  Thenardite       -0.89     -1.21   -0.32  Na2SO4
  Trona            -9.83    -21.15  -11.32  Na3H(CO3)2:2H2O

**For a gas, SI = log10(fugacity). Fugacity = pressure * phi / 1 atm.
  For ideal gases, phi = 1.

Reaction step 6.

WARNING: Numerical method failed, switching to numerical derivatives.
Using solution 1.	
Using pure phase assemblage 1.	
Using gas phase 1.	
Using temperature 1.	

-----------------------------------Gas phase-----------------------------------

Total pressure: 81.44      atmospheres          (Peng-Robinson calculation)
    Gas volume:   1.00e+00 liters
  Molar volume:   2.92e-01 liters/mole
   P * Vm / RT:  0.77789  (Compressibility Factor Z) 

                                                        Moles in gas
                                            ----------------------------------
Component         log P           P    phi     Initial       Final       Delta

CO2(g)             1.90   7.984e+01  0.804   0.000e+00   3.352e+00   3.352e+00
H2O(g)             0.20   1.591e+00  0.620   0.000e+00   6.681e-02   6.681e-02

-------------------------------Phase assemblage--------------------------------

                                                      Moles in assemblage
Phase               SI  log IAP  log K(T, P)   Initial       Final       Delta

CO2(g)            1.81    -0.18     -1.99    1.000e+01   6.239e+00  -3.761e+00

-----------------------------Solution composition------------------------------

	Elements           Molality       Moles

	C                 4.091e-01   4.086e-01
	Na                2.003e+00   2.000e+00
	S                 1.001e+00   1.000e+00

----------------------------Description of solution----------------------------

                                       pH  =   4.238      Charge balance
                                       pe  =   4.000      Adjusted to redox equilibrium
       Specific Conductance (µS/cm, 100°C)  = 137375
                          Density (g/cm³)  =   1.08168
                               Volume (L)  =   1.07132
                        Activity of water  =   0.950
                           Ionic strength  =   2.997e+00
                       Mass of water (kg)  =   9.987e-01
                 Total alkalinity (eq/kg)  =   2.937e-13
                       Total CO2 (mol/kg)  =   4.091e-01
                         Temperature (°C)  = 100.00
                           Pressure (atm)  = 81.44
                  Electrical balance (eq)  =  -8.330e-10
 Percent error, 100*(Cat-|An|)/(Cat+|An|)  =  -0.00
                               Iterations  = 132
                         Gamma iterations  =   4
                      Osmotic coefficient  =   0.83808
                         Density of water  =   0.96219
                                  Total H  = 1.108788e+02
                                  Total O  = 6.025660e+01

----------------------------Distribution of species----------------------------

                                                    MacInnes  MacInnes
                                MacInnes       Log       Log       Log    mole V
   Species          Molality    Activity  Molality  Activity     Gamma   cm³/mol

   H+              2.217e-04   5.781e-05    -3.654    -4.238    -0.584      0.00
   OH-             1.594e-08   9.960e-09    -7.797    -8.002    -0.204      0.35
   H2O             5.551e+01   9.498e-01     1.744    -0.022     0.000     18.72
C(4)          4.091e-01
   CO2             4.013e-01   6.638e-01    -0.397    -0.178     0.219     22.15
   HCO3-           7.848e-03   4.296e-03    -2.105    -2.367    -0.262     30.70
   CO3-2           7.648e-08   5.467e-09    -7.116    -8.262    -1.146      2.32
Na            2.003e+00
   Na+             2.003e+00   9.342e-01     0.302    -0.030    -0.331      1.81
S(6)          1.001e+00
   SO4-2           9.937e-01   7.263e-02    -0.003    -1.139    -1.136     20.51
   HSO4-           7.626e-03   3.767e-03    -2.118    -2.424    -0.306     43.30

------------------------------Saturation indices-------------------------------

  Phase               SI** log IAP   log K(373 K,  81 atm)

  Burkeite        -10.06    -10.72   -0.66  Na6CO3(SO4)2
  CO2(g)            1.81     -0.18   -1.99  CO2	 Pressure  79.8 atm, phi 0.804
  H2O(g)           -0.01     -0.02   -0.02  H2O	 Pressure   1.6 atm, phi 0.620
  Mirabilite       -0.90     -1.42   -0.53  Na2SO4:10H2O
  Nahcolite        -1.78    -12.53  -10.75  NaHCO3
  Natron           -7.50     -8.55   -1.05  Na2CO3:10H2O
  Thenardite       -0.88     -1.20   -0.32  Na2SO4
  Trona            -9.58    -20.90  -11.32  Na3H(CO3)2:2H2O

**For a gas, SI = log10(fugacity). Fugacity = pressure * phi / 1 atm.
  For ideal gases, phi = 1.

Reaction step 7.

WARNING: Numerical method failed, switching to numerical derivatives.
Using solution 1.	
Using pure phase assemblage 1.	
Using gas phase 1.	
Using temperature 1.	

-----------------------------------Gas phase-----------------------------------

Total pressure: 82.47      atmospheres          (Peng-Robinson calculation)
    Gas volume:   1.00e+00 liters
  Molar volume:   3.12e-01 liters/mole
   P * Vm / RT:  0.80739  (Compressibility Factor Z) 

                                                        Moles in gas
                                            ----------------------------------
Component         log P           P    phi     Initial       Final       Delta

CO2(g)             1.90   7.995e+01  0.827   0.000e+00   3.109e+00   3.109e+00
H2O(g)             0.40   2.519e+00  0.650   0.000e+00   9.793e-02   9.793e-02

-------------------------------Phase assemblage--------------------------------

                                                      Moles in assemblage
Phase               SI  log IAP  log K(T, P)   Initial       Final       Delta

CO2(g)            1.82    -0.20     -2.03    1.000e+01   6.506e+00  -3.494e+00

-----------------------------Solution composition------------------------------

	Elements           Molality       Moles

	C                 3.862e-01   3.855e-01
	Na                2.004e+00   2.000e+00
	S                 1.002e+00   1.000e+00

----------------------------Description of solution----------------------------

                                       pH  =   4.433      Charge balance
                                       pe  =   4.000      Adjusted to redox equilibrium
       Specific Conductance (µS/cm, 115°C)  = 158410
                          Density (g/cm³)  =   1.06639
                               Volume (L)  =   1.08519
                        Activity of water  =   0.949
                           Ionic strength  =   2.997e+00
                       Mass of water (kg)  =   9.981e-01
                 Total alkalinity (eq/kg)  =   5.324e-13
                       Total CO2 (mol/kg)  =   3.862e-01
                         Temperature (°C)  = 115.00
                           Pressure (atm)  = 82.47
                  Electrical balance (eq)  =  -8.362e-10
 Percent error, 100*(Cat-|An|)/(Cat+|An|)  =  -0.00
                               Iterations  = 132
                         Gamma iterations  =   4
                      Osmotic coefficient  =   0.84942
                         Density of water  =   0.94708
                                  Total H  = 1.108166e+02
                                  Total O  = 6.017919e+01

----------------------------Distribution of species----------------------------

                                                    MacInnes  MacInnes
                                MacInnes       Log       Log       Log    mole V
   Species          Molality    Activity  Molality  Activity     Gamma   cm³/mol

   H+              1.586e-04   3.692e-05    -3.800    -4.433    -0.633      0.00
   OH-             4.018e-08   2.590e-08    -7.396    -7.587    -0.191     -0.40
   H2O             5.551e+01   9.494e-01     1.744    -0.023     0.000     19.02
C(4)          3.862e-01
   CO2             3.774e-01   6.243e-01    -0.423    -0.205     0.219     21.64
   HCO3-           8.827e-03   5.178e-03    -2.054    -2.286    -0.232     30.13
   CO3-2           1.245e-07   9.240e-09    -6.905    -8.034    -1.129      0.60
Na            2.004e+00
   Na+             2.004e+00   9.042e-01     0.302    -0.044    -0.346      1.92
S(6)          1.002e+00
   SO4-2           9.933e-01   7.851e-02    -0.003    -1.105    -1.102     18.88
   HSO4-           8.669e-03   4.280e-03    -2.062    -2.369    -0.307     43.19

------------------------------Saturation indices-------------------------------

  Phase               SI** log IAP   log K(388 K,  82 atm)

  Burkeite         -9.85    -10.51   -0.66  Na6CO3(SO4)2
  CO2(g)            1.82     -0.20   -2.03  CO2	 Pressure  79.9 atm, phi 0.827
  H2O(g)            0.21     -0.02   -0.24  H2O	 Pressure   2.5 atm, phi 0.650
  Mirabilite       -0.21     -1.42   -1.21  Na2SO4:10H2O
  Nahcolite        -1.77    -12.51  -10.74  NaHCO3
  Natron           -7.31     -8.35   -1.04  Na2CO3:10H2O
  Thenardite       -0.88     -1.19   -0.32  Na2SO4
  Trona            -9.36    -20.68  -11.32  Na3H(CO3)2:2H2O

**For a gas, SI = log10(fugacity). Fugacity = pressure * phi / 1 atm.
  For ideal gases, phi = 1.

Reaction step 8.

WARNING: Numerical method failed, switching to numerical derivatives.
Using solution 1.	
Using pure phase assemblage 1.	
Using gas phase 1.	
Using temperature 1.	

-----------------------------------Gas phase-----------------------------------

Total pressure: 83.92      atmospheres          (Peng-Robinson calculation)
    Gas volume:   1.00e+00 liters
  Molar volume:   3.27e-01 liters/mole
   P * Vm / RT:  0.82979  (Compressibility Factor Z) 

                                                        Moles in gas
                                            ----------------------------------
Component         log P           P    phi     Initial       Final       Delta

CO2(g)             1.90   8.006e+01  0.847   0.000e+00   2.916e+00   2.916e+00
H2O(g)             0.59   3.859e+00  0.674   0.000e+00   1.406e-01   1.406e-01

-------------------------------Phase assemblage--------------------------------

                                                      Moles in assemblage
Phase               SI  log IAP  log K(T, P)   Initial       Final       Delta

CO2(g)            1.83    -0.22     -2.05    1.000e+01   6.711e+00  -3.289e+00

-----------------------------Solution composition------------------------------

	Elements           Molality       Moles

	C                 3.731e-01   3.721e-01
	Na                2.005e+00   2.000e+00
	S                 1.003e+00   1.000e+00

----------------------------Description of solution----------------------------

                                       pH  =   4.629      Charge balance
                                       pe  =   4.000      Adjusted to redox equilibrium
       Specific Conductance (µS/cm, 130°C)  = 177937
                          Density (g/cm³)  =   1.05416
                               Volume (L)  =   1.09650
                        Activity of water  =   0.949
                           Ionic strength  =   2.998e+00
                       Mass of water (kg)  =   9.973e-01
                 Total alkalinity (eq/kg)  =  -6.863e-12
                       Total CO2 (mol/kg)  =   3.731e-01
                         Temperature (°C)  = 130.00
                           Pressure (atm)  = 83.92
                  Electrical balance (eq)  =  -7.410e-10
 Percent error, 100*(Cat-|An|)/(Cat+|An|)  =  -0.00
                               Iterations  = 132
                         Gamma iterations  =   4
                      Osmotic coefficient  =   0.86012
                         Density of water  =   0.93484
                                  Total H  = 1.107313e+02
                                  Total O  = 6.010979e+01

----------------------------Distribution of species----------------------------

                                                    MacInnes  MacInnes
                                MacInnes       Log       Log       Log    mole V
   Species          Molality    Activity  Molality  Activity     Gamma   cm³/mol

   H+              1.142e-04   2.351e-05    -3.942    -4.629    -0.687      0.00
   OH-             9.458e-08   6.269e-08    -7.024    -7.203    -0.179     -1.31
   H2O             5.551e+01   9.490e-01     1.744    -0.023     0.000     19.27
C(4)          3.731e-01
   CO2             3.632e-01   6.010e-01    -0.440    -0.221     0.219     21.29
   HCO3-           9.899e-03   6.199e-03    -2.004    -2.208    -0.203     29.47
   CO3-2           1.971e-07   1.489e-08    -6.705    -7.827    -1.122     -1.19
Na            2.005e+00
   Na+             2.005e+00   8.679e-01     0.302    -0.062    -0.364      2.06
S(6)          1.003e+00
   SO4-2           9.929e-01   8.337e-02    -0.003    -1.079    -1.076     17.33
   HSO4-           9.785e-03   4.811e-03    -2.009    -2.318    -0.308     43.04

------------------------------Saturation indices-------------------------------

  Phase               SI** log IAP   log K(403 K,  84 atm)

  Burkeite         -9.70    -10.35   -0.66  Na6CO3(SO4)2
  CO2(g)            1.83     -0.22   -2.05  CO2	 Pressure  80.1 atm, phi 0.847
  H2O(g)            0.42     -0.02   -0.44  H2O	 Pressure   3.9 atm, phi 0.674
  Mirabilite        0.76     -1.43   -2.19  Na2SO4:10H2O
  Nahcolite        -1.77    -12.52  -10.74  NaHCO3
  Natron           -7.14     -8.18   -1.04  Na2CO3:10H2O
  Thenardite       -0.89     -1.20   -0.32  Na2SO4
  Trona            -9.20    -20.51  -11.31  Na3H(CO3)2:2H2O

**For a gas, SI = log10(fugacity). Fugacity = pressure * phi / 1 atm.
  For ideal gases, phi = 1.

Reaction step 9.

WARNING: Numerical method failed, switching to numerical derivatives.
Using solution 1.	
Using pure phase assemblage 1.	
Using gas phase 1.	
Using temperature 1.	

-----------------------------------Gas phase-----------------------------------

Total pressure: 85.91      atmospheres          (Peng-Robinson calculation)
    Gas volume:   1.00e+00 liters
  Molar volume:   3.38e-01 liters/mole
   P * Vm / RT:  0.84650  (Compressibility Factor Z) 

                                                        Moles in gas
                                            ----------------------------------
Component         log P           P    phi     Initial       Final       Delta

CO2(g)             1.90   8.017e+01  0.865   0.000e+00   2.760e+00   2.760e+00
H2O(g)             0.76   5.740e+00  0.692   0.000e+00   1.976e-01   1.976e-01

-------------------------------Phase assemblage--------------------------------

                                                      Moles in assemblage
Phase               SI  log IAP  log K(T, P)   Initial       Final       Delta

CO2(g)            1.84    -0.23     -2.07    1.000e+01   6.874e+00  -3.126e+00

-----------------------------Solution composition------------------------------

	Elements           Molality       Moles

	C                 3.677e-01   3.663e-01
	Na                2.008e+00   2.000e+00
	S                 1.004e+00   1.000e+00

----------------------------Description of solution----------------------------

                                       pH  =   4.826      Charge balance
                                       pe  =   4.000      Adjusted to redox equilibrium
       Specific Conductance (µS/cm, 145°C)  = 196095
                          Density (g/cm³)  =   1.04098
                               Volume (L)  =   1.10916
                        Activity of water  =   0.948
                           Ionic strength  =   3.000e+00
                       Mass of water (kg)  =   9.962e-01
                 Total alkalinity (eq/kg)  =  -6.284e-12
                       Total CO2 (mol/kg)  =   3.677e-01
                         Temperature (°C)  = 145.00
                           Pressure (atm)  = 85.91
                  Electrical balance (eq)  =  -7.343e-10
 Percent error, 100*(Cat-|An|)/(Cat+|An|)  =  -0.00
                               Iterations  = 153
                         Gamma iterations  =   4
                      Osmotic coefficient  =   0.87054
                         Density of water  =   0.92163
                                  Total H  = 1.106172e+02
                                  Total O  = 6.004129e+01

----------------------------Distribution of species----------------------------

                                                    MacInnes  MacInnes
                                MacInnes       Log       Log       Log    mole V
   Species          Molality    Activity  Molality  Activity     Gamma   cm³/mol

   H+              8.265e-05   1.492e-05    -4.083    -4.826    -0.743      0.00
   OH-             2.092e-07   1.422e-07    -6.680    -6.847    -0.168     -2.45
   H2O             5.551e+01   9.484e-01     1.744    -0.023     0.000     19.55
C(4)          3.677e-01
   CO2             3.566e-01   5.903e-01    -0.448    -0.229     0.219     21.08
   HCO3-           1.107e-02   7.388e-03    -1.956    -2.131    -0.176     28.64
   CO3-2           3.042e-07   2.307e-08    -6.517    -7.637    -1.120     -3.28
Na            2.008e+00
   Na+             2.008e+00   8.283e-01     0.303    -0.082    -0.384      2.22
S(6)          1.004e+00
   SO4-2           9.928e-01   8.741e-02    -0.003    -1.058    -1.055     15.66
   HSO4-           1.099e-02   5.368e-03    -1.959    -2.270    -0.311     42.80

------------------------------Saturation indices-------------------------------

  Phase               SI** log IAP   log K(418 K,  86 atm)

  Burkeite         -9.59    -10.24   -0.65  Na6CO3(SO4)2
  CO2(g)            1.84     -0.23   -2.07  CO2	 Pressure  80.2 atm, phi 0.865
  H2O(g)            0.60     -0.02   -0.62  H2O	 Pressure   5.7 atm, phi 0.692
  Mirabilite        2.02     -1.45   -3.47  Na2SO4:10H2O
  Nahcolite        -1.80    -12.54  -10.74  NaHCO3
  Natron           -6.99     -8.03   -1.04  Na2CO3:10H2O
  Thenardite       -0.91     -1.22   -0.31  Na2SO4
  Trona            -9.08    -20.39  -11.31  Na3H(CO3)2:2H2O

**For a gas, SI = log10(fugacity). Fugacity = pressure * phi / 1 atm.
  For ideal gases, phi = 1.

Reaction step 10.

WARNING: Numerical method failed, switching to numerical derivatives.
Using solution 1.	
Using pure phase assemblage 1.	
Using gas phase 1.	
Using temperature 1.	

-----------------------------------Gas phase-----------------------------------

Total pressure: 88.57      atmospheres          (Peng-Robinson calculation)
    Gas volume:   1.00e+00 liters
  Molar volume:   3.44e-01 liters/mole
   P * Vm / RT:  0.85836  (Compressibility Factor Z) 

                                                        Moles in gas
                                            ----------------------------------
Component         log P           P    phi     Initial       Final       Delta

CO2(g)             1.90   8.026e+01  0.880   0.000e+00   2.631e+00   2.631e+00
H2O(g)             0.92   8.309e+00  0.704   0.000e+00   2.724e-01   2.724e-01

-------------------------------Phase assemblage--------------------------------

                                                      Moles in assemblage
Phase               SI  log IAP  log K(T, P)   Initial       Final       Delta

CO2(g)            1.85    -0.23     -2.08    1.000e+01   7.003e+00  -2.997e+00

-----------------------------Solution composition------------------------------

	Elements           Molality       Moles

	C                 3.688e-01   3.669e-01
	Na                2.010e+00   2.000e+00
	S                 1.005e+00   1.000e+00

----------------------------Description of solution----------------------------

                                       pH  =   5.023      Charge balance
                                       pe  =   4.000      Adjusted to redox equilibrium
       Specific Conductance (µS/cm, 160°C)  = 212161
                          Density (g/cm³)  =   1.02681
                               Volume (L)  =   1.12317
                        Activity of water  =   0.948
                           Ionic strength  =   3.003e+00
                       Mass of water (kg)  =   9.949e-01
                 Total alkalinity (eq/kg)  =  -6.322e-12
                       Total CO2 (mol/kg)  =   3.688e-01
                         Temperature (°C)  = 160.00
                           Pressure (atm)  = 88.57
                  Electrical balance (eq)  =  -7.187e-10
 Percent error, 100*(Cat-|An|)/(Cat+|An|)  =  -0.00
                               Iterations  = 133
                         Gamma iterations  =   4
                      Osmotic coefficient  =   0.88025
                         Density of water  =   0.90745
                                  Total H  = 1.104677e+02
                                  Total O  = 5.996766e+01

----------------------------Distribution of species----------------------------

                                                    MacInnes  MacInnes
                                MacInnes       Log       Log       Log    mole V
   Species          Molality    Activity  Molality  Activity     Gamma   cm³/mol

   H+              6.023e-05   9.474e-06    -4.220    -5.023    -0.803      0.00
   OH-             4.361e-07   3.031e-07    -6.360    -6.518    -0.158     -3.90
   H2O             5.551e+01   9.477e-01     1.744    -0.023     0.000     19.85
C(4)          3.688e-01
   CO2             3.564e-01   5.902e-01    -0.448    -0.229     0.219     21.01
   HCO3-           1.235e-02   8.749e-03    -1.908    -2.058    -0.150     27.61
   CO3-2           4.588e-07   3.434e-08    -6.338    -7.464    -1.126     -5.75
Na            2.010e+00
   Na+             2.010e+00   7.858e-01     0.303    -0.105    -0.408      2.41
S(6)          1.005e+00
   SO4-2           9.929e-01   9.024e-02    -0.003    -1.045    -1.042     13.88
   HSO4-           1.229e-02   5.941e-03    -1.910    -2.226    -0.316     42.45

------------------------------Saturation indices-------------------------------

  Phase               SI** log IAP   log K(433 K,  89 atm)

  Burkeite         -9.53    -10.18   -0.65  Na6CO3(SO4)2
  CO2(g)            1.85     -0.23   -2.08  CO2	 Pressure  80.3 atm, phi 0.880
  H2O(g)            0.77     -0.02   -0.79  H2O	 Pressure   8.3 atm, phi 0.704
  Mirabilite        3.58     -1.49   -5.07  Na2SO4:10H2O
  Nahcolite        -1.85    -12.59  -10.74  NaHCO3
  Natron           -6.87     -7.91   -1.04  Na2CO3:10H2O
  Thenardite       -0.94     -1.25   -0.31  Na2SO4
  Trona            -9.00    -20.31  -11.31  Na3H(CO3)2:2H2O

**For a gas, SI = log10(fugacity). Fugacity = pressure * phi / 1 atm.
  For ideal gases, phi = 1.

------------------
End of simulation.
------------------

------------------------------------
Reading input data for simulation 2.
------------------------------------

	SOLUTION 1
	 pH 7 charge
	 Na 4e3
	 S(6) 2e3
	 temp 25
	USE equilibrium_phases 1
	 USE reaction_temperature 1
	 USE gas_phase 1
	END
-------------------------------------------
Beginning of initial solution calculations.
-------------------------------------------

Initial solution 1.	

-----------------------------Solution composition------------------------------

	Elements           Molality       Moles

	Na                4.000e+00   4.000e+00
	S(6)              2.000e+00   2.000e+00

----------------------------Description of solution----------------------------

                                       pH  =   7.411      Charge balance
                                       pe  =   4.000    
       Specific Conductance (µS/cm, 25°C)  = 27441
                          Density (g/cm³)  =   1.21067
                               Volume (L)  =   1.06064
                        Activity of water  =   0.935
                           Ionic strength  =   6.000e+00
                       Mass of water (kg)  =   1.000e+00
                 Total alkalinity (eq/kg)  =  -4.590e-16
                    Total carbon (mol/kg)  =   0.000e+00
                       Total CO2 (mol/kg)  =   0.000e+00
                         Temperature (°C)  =  25.00
                  Electrical balance (eq)  =  -1.238e-12
 Percent error, 100*(Cat-|An|)/(Cat+|An|)  =  -0.00
                               Iterations  =  13
                         Gamma iterations  =   5
                      Osmotic coefficient  =   0.62501
                         Density of water  =   0.99704
                                  Total H  = 1.110124e+02
                                  Total O  = 6.350622e+01

----------------------------Distribution of species----------------------------

                                                    MacInnes  MacInnes
                                MacInnes       Log       Log       Log    mole V
   Species          Molality    Activity  Molality  Activity     Gamma   cm³/mol

   OH-             4.380e-07   2.436e-07    -6.359    -6.613    -0.255      4.71
   H+              7.524e-08   3.884e-08    -7.124    -7.411    -0.287      0.00
   H2O             5.551e+01   9.347e-01     1.744    -0.029     0.000     18.07
Na            4.000e+00
   Na+             4.000e+00   1.701e+00     0.602     0.231    -0.371      1.25
S(6)          2.000e+00
   SO4-2           2.000e+00   4.217e-02     0.301    -1.375    -1.676     26.33
   HSO4-           3.627e-07   1.560e-07    -6.440    -6.807    -0.366     42.04

------------------------------Saturation indices-------------------------------

  Phase               SI** log IAP   log K(298 K,   1 atm)

  H2O(g)           -1.53     -0.03    1.50  H2O
  Mirabilite        0.01     -1.21   -1.21  Na2SO4:10H2O
  Thenardite       -0.56     -0.91   -0.35  Na2SO4

**For a gas, SI = log10(fugacity). Fugacity = pressure * phi / 1 atm.
  For ideal gases, phi = 1.

-----------------------------------------
Beginning of batch-reaction calculations.
-----------------------------------------

Reaction step 1.

WARNING: Numerical method failed, switching to numerical derivatives.
Using solution 1.	
Using pure phase assemblage 1.	
Using gas phase 1.	
Using temperature 1.	

-----------------------------------Gas phase-----------------------------------

Total pressure: 65.13      atmospheres          (Peng-Robinson calculation)
    Gas volume:   1.00e+00 liters
  Molar volume:   1.05e-01 liters/mole
   P * Vm / RT:  0.28077  (Compressibility Factor Z) 

                                                        Moles in gas
                                            ----------------------------------
Component         log P           P    phi     Initial       Final       Delta

CO2(g)             1.81   6.502e+01  0.657   0.000e+00   9.466e+00   9.466e+00
H2O(g)            -0.97   1.063e-01  0.284   0.000e+00   1.548e-02   1.548e-02

-------------------------------Phase assemblage--------------------------------

                                                      Moles in assemblage
Phase               SI  log IAP  log K(T, P)   Initial       Final       Delta

CO2(g)            1.63     0.14     -1.49    1.000e+01           0  -1.000e+01

-----------------------------Solution composition------------------------------

	Elements           Molality       Moles

	C                 5.345e-01   5.343e-01
	Na                4.001e+00   4.000e+00
	S                 2.001e+00   2.000e+00

----------------------------Description of solution----------------------------

                                       pH  =   3.405      Charge balance
                                       pe  =   4.000      Adjusted to redox equilibrium
       Specific Conductance (µS/cm, 25°C)  = 32629
                          Density (g/cm³)  =   1.21578
                               Volume (L)  =   1.07530
                        Activity of water  =   0.918
                           Ionic strength  =   5.999e+00
                       Mass of water (kg)  =   9.996e-01
                 Total alkalinity (eq/kg)  =   3.651e-14
                       Total CO2 (mol/kg)  =   5.345e-01
                         Temperature (°C)  =  25.00
                           Pressure (atm)  = 65.13
                  Electrical balance (eq)  =   7.837e-11
 Percent error, 100*(Cat-|An|)/(Cat+|An|)  =   0.00
                               Iterations  = 135
                         Gamma iterations  =   5
                      Osmotic coefficient  =   0.72454
                         Density of water  =   0.99992
                                  Total H  = 1.109815e+02
                                  Total O  = 6.455935e+01

----------------------------Distribution of species----------------------------

                                                    MacInnes  MacInnes
                                MacInnes       Log       Log       Log    mole V
   Species          Molality    Activity  Molality  Activity     Gamma   cm³/mol

   H+              7.640e-04   3.940e-04    -3.117    -3.405    -0.288      0.00
   OH-             4.360e-11   2.442e-11   -10.360   -10.612    -0.252      4.91
   H2O             5.551e+01   9.182e-01     1.744    -0.037     0.000     18.02
C(4)          5.345e-01
   CO2             5.299e-01   1.367e+00    -0.276     0.136     0.412     29.36
   HCO3-           4.624e-03   1.492e-03    -2.335    -2.826    -0.491     36.97
   CO3-2           5.972e-09   1.865e-10    -8.224    -9.729    -1.505      9.08
Na            4.001e+00
   Na+             4.001e+00   1.828e+00     0.602     0.262    -0.340      1.45
S(6)          2.001e+00
   SO4-2           1.997e+00   4.616e-02     0.300    -1.336    -1.636     27.00
   HSO4-           3.860e-03   1.666e-03    -2.413    -2.778    -0.365     41.86

------------------------------Saturation indices-------------------------------

  Phase               SI** log IAP   log K(298 K,  65 atm)

  Burkeite        -10.15    -10.83   -0.68  Na6CO3(SO4)2
  CO2(g)            1.63      0.14   -1.49  CO2	 Pressure  65.0 atm, phi 0.657
  H2O(g)           -1.52     -0.04    1.48  H2O	 Pressure   0.1 atm, phi 0.284
  Mirabilite        0.02     -1.18   -1.21  Na2SO4:10H2O
  Nahcolite        -2.12    -12.87  -10.75  NaHCO3
  Natron           -8.53     -9.58   -1.04  Na2CO3:10H2O
  Thenardite       -0.49     -0.81   -0.32  Na2SO4
  Trona           -10.82    -22.15  -11.33  Na3H(CO3)2:2H2O

**For a gas, SI = log10(fugacity). Fugacity = pressure * phi / 1 atm.
  For ideal gases, phi = 1.

Reaction step 2.

WARNING: Numerical method failed, switching to numerical derivatives.
Using solution 1.	
Using pure phase assemblage 1.	
Using gas phase 1.	
Using temperature 1.	

-----------------------------------Gas phase-----------------------------------

Total pressure: 79.85      atmospheres          (Peng-Robinson calculation)
    Gas volume:   1.00e+00 liters
  Molar volume:   1.48e-01 liters/mole
   P * Vm / RT:  0.45893  (Compressibility Factor Z) 

                                                        Moles in gas
                                            ----------------------------------
Component         log P           P    phi     Initial       Final       Delta

CO2(g)             1.90   7.965e+01  0.649   0.000e+00   6.754e+00   6.754e+00
H2O(g)            -0.71   1.937e-01  0.364   0.000e+00   1.643e-02   1.643e-02

-------------------------------Phase assemblage--------------------------------

                                                      Moles in assemblage
Phase               SI  log IAP  log K(T, P)   Initial       Final       Delta

CO2(g)            1.71     0.06     -1.65    1.000e+01   2.792e+00  -7.208e+00

-----------------------------Solution composition------------------------------

	Elements           Molality       Moles

	C                 4.536e-01   4.534e-01
	Na                4.002e+00   4.000e+00
	S                 2.001e+00   2.000e+00

----------------------------Description of solution----------------------------

                                       pH  =   3.551      Charge balance
                                       pe  =   4.000      Adjusted to redox equilibrium
       Specific Conductance (µS/cm, 40°C)  = 46154
                          Density (g/cm³)  =   1.20997
                               Volume (L)  =   1.07751
                        Activity of water  =   0.918
                           Ionic strength  =   5.998e+00
                       Mass of water (kg)  =   9.996e-01
                 Total alkalinity (eq/kg)  =  -2.196e-13
                       Total CO2 (mol/kg)  =   4.536e-01
                         Temperature (°C)  =  40.00
                           Pressure (atm)  = 79.85
                  Electrical balance (eq)  =  -7.645e-11
 Percent error, 100*(Cat-|An|)/(Cat+|An|)  =  -0.00
                               Iterations  = 135
                         Gamma iterations  =   5
                      Osmotic coefficient  =   0.73690
                         Density of water  =   0.99564
                                  Total H  = 1.109796e+02
                                  Total O  = 6.439667e+01

----------------------------Distribution of species----------------------------

                                                    MacInnes  MacInnes
                                MacInnes       Log       Log       Log    mole V
   Species          Molality    Activity  Molality  Activity     Gamma   cm³/mol

   H+              6.077e-04   2.814e-04    -3.216    -3.551    -0.334      0.00
   OH-             1.735e-10   9.931e-11    -9.761   -10.003    -0.242      5.35
   H2O             5.551e+01   9.179e-01     1.744    -0.037     0.000     18.09
C(4)          4.536e-01
   CO2             4.481e-01   1.156e+00    -0.349     0.063     0.412     26.84
   HCO3-           5.536e-03   1.999e-03    -2.257    -2.699    -0.442     36.36
   CO3-2           1.268e-08   4.533e-10    -7.897    -9.344    -1.447      8.57
Na            4.002e+00
   Na+             4.002e+00   1.843e+00     0.602     0.266    -0.337      1.71
S(6)          2.001e+00
   SO4-2           1.996e+00   5.333e-02     0.300    -1.273    -1.573     27.19
   HSO4-           4.928e-03   2.091e-03    -2.307    -2.680    -0.372     42.63

------------------------------Saturation indices-------------------------------

  Phase               SI** log IAP   log K(313 K,  80 atm)

  Burkeite         -9.63    -10.30   -0.67  Na6CO3(SO4)2
  CO2(g)            1.71      0.06   -1.65  CO2	 Pressure  79.7 atm, phi 0.649
  H2O(g)           -1.15     -0.04    1.11  H2O	 Pressure   0.2 atm, phi 0.364
  Mirabilite       -0.51     -1.11   -0.61  Na2SO4:10H2O
  Nahcolite        -1.87    -12.63  -10.76  NaHCO3
  Natron           -8.10     -9.18   -1.08  Na2CO3:10H2O
  Thenardite       -0.42     -0.74   -0.32  Na2SO4
  Trona           -10.19    -21.52  -11.32  Na3H(CO3)2:2H2O

**For a gas, SI = log10(fugacity). Fugacity = pressure * phi / 1 atm.
  For ideal gases, phi = 1.

Reaction step 3.

WARNING: Numerical method failed, switching to numerical derivatives.
Using solution 1.	
Using pure phase assemblage 1.	
Using gas phase 1.	
Using temperature 1.	

-----------------------------------Gas phase-----------------------------------

Total pressure: 79.95      atmospheres          (Peng-Robinson calculation)
    Gas volume:   1.00e+00 liters
  Molar volume:   2.05e-01 liters/mole
   P * Vm / RT:  0.60851  (Compressibility Factor Z) 

                                                        Moles in gas
                                            ----------------------------------
Component         log P           P    phi     Initial       Final       Delta

CO2(g)             1.90   7.963e+01  0.702   0.000e+00   4.860e+00   4.860e+00
H2O(g)            -0.50   3.195e-01  0.469   0.000e+00   1.950e-02   1.950e-02

-------------------------------Phase assemblage--------------------------------

                                                      Moles in assemblage
Phase               SI  log IAP  log K(T, P)   Initial       Final       Delta

CO2(g)            1.75    -0.02     -1.77    1.000e+01   4.764e+00  -5.236e+00

-----------------------------Solution composition------------------------------

	Elements           Molality       Moles

	C                 3.762e-01   3.760e-01
	Na                4.002e+00   4.000e+00
	S                 2.001e+00   2.000e+00

----------------------------Description of solution----------------------------

                                       pH  =   3.738      Charge balance
                                       pe  =   4.000      Adjusted to redox equilibrium
       Specific Conductance (µS/cm, 55°C)  = 59540
                          Density (g/cm³)  =   1.20290
                               Volume (L)  =   1.08096
                        Activity of water  =   0.918
                           Ionic strength  =   5.997e+00
                       Mass of water (kg)  =   9.995e-01
                 Total alkalinity (eq/kg)  =  -1.327e-13
                       Total CO2 (mol/kg)  =   3.762e-01
                         Temperature (°C)  =  55.00
                           Pressure (atm)  = 79.95
                  Electrical balance (eq)  =  -8.655e-11
 Percent error, 100*(Cat-|An|)/(Cat+|An|)  =  -0.00
                               Iterations  = 131
                         Gamma iterations  =   5
                      Osmotic coefficient  =   0.74814
                         Density of water  =   0.98911
                                  Total H  = 1.109734e+02
                                  Total O  = 6.423869e+01

----------------------------Distribution of species----------------------------

                                                    MacInnes  MacInnes
                                MacInnes       Log       Log       Log    mole V
   Species          Molality    Activity  Molality  Activity     Gamma   cm³/mol

   H+              4.494e-04   1.828e-04    -3.347    -3.738    -0.391      0.00
   OH-             6.439e-10   3.814e-10    -9.191    -9.419    -0.227      5.50
   H2O             5.551e+01   9.176e-01     1.744    -0.037     0.000     18.21
C(4)          3.762e-01
   CO2             3.698e-01   9.539e-01    -0.432    -0.020     0.412     25.06
   HCO3-           6.340e-03   2.593e-03    -2.198    -2.586    -0.388     35.85
   CO3-2           2.524e-08   1.048e-09    -7.598    -8.980    -1.382      7.68
Na            4.002e+00
   Na+             4.002e+00   1.819e+00     0.602     0.260    -0.342      1.84
S(6)          2.001e+00
   SO4-2           1.995e+00   6.254e-02     0.300    -1.204    -1.504     26.73
   HSO4-           5.891e-03   2.486e-03    -2.230    -2.605    -0.375     43.19

------------------------------Saturation indices-------------------------------

  Phase               SI** log IAP   log K(328 K,  80 atm)

  Burkeite         -9.16     -9.83   -0.67  Na6CO3(SO4)2
  CO2(g)            1.75     -0.02   -1.77  CO2	 Pressure  79.6 atm, phi 0.702
  H2O(g)           -0.82     -0.04    0.79  H2O	 Pressure   0.3 atm, phi 0.469
  Mirabilite       -0.85     -1.06   -0.21  Na2SO4:10H2O
  Nahcolite        -1.70    -12.46  -10.75  NaHCO3
  Natron           -7.76     -8.83   -1.07  Na2CO3:10H2O
  Thenardite       -0.36     -0.68   -0.32  Na2SO4
  Trona            -9.67    -20.99  -11.32  Na3H(CO3)2:2H2O

**For a gas, SI = log10(fugacity). Fugacity = pressure * phi / 1 atm.
  For ideal gases, phi = 1.

Reaction step 4.

WARNING: Numerical method failed, switching to numerical derivatives.
Using solution 1.	
Using pure phase assemblage 1.	
Using gas phase 1.	
Using temperature 1.	

-----------------------------------Gas phase-----------------------------------

Total pressure: 80.23      atmospheres          (Peng-Robinson calculation)
    Gas volume:   1.00e+00 liters
  Molar volume:   2.41e-01 liters/mole
   P * Vm / RT:  0.68617  (Compressibility Factor Z) 

                                                        Moles in gas
                                            ----------------------------------
Component         log P           P    phi     Initial       Final       Delta

CO2(g)             1.90   7.968e+01  0.742   0.000e+00   4.124e+00   4.124e+00
H2O(g)            -0.26   5.537e-01  0.533   0.000e+00   2.866e-02   2.866e-02

-------------------------------Phase assemblage--------------------------------

                                                      Moles in assemblage
Phase               SI  log IAP  log K(T, P)   Initial       Final       Delta

CO2(g)            1.77    -0.09     -1.86    1.000e+01   5.553e+00  -4.447e+00

-----------------------------Solution composition------------------------------

	Elements           Molality       Moles

	C                 3.240e-01   3.238e-01
	Na                4.003e+00   4.000e+00
	S                 2.001e+00   2.000e+00

----------------------------Description of solution----------------------------

                                       pH  =   3.943      Charge balance
                                       pe  =   4.000      Adjusted to redox equilibrium
       Specific Conductance (µS/cm, 70°C)  = 72442
                          Density (g/cm³)  =   1.19499
                               Volume (L)  =   1.08605
                        Activity of water  =   0.917
                           Ionic strength  =   5.997e+00
                       Mass of water (kg)  =   9.994e-01
                 Total alkalinity (eq/kg)  =  -1.058e-13
                       Total CO2 (mol/kg)  =   3.240e-01
                         Temperature (°C)  =  70.00
                           Pressure (atm)  = 80.23
                  Electrical balance (eq)  =  -9.674e-11
 Percent error, 100*(Cat-|An|)/(Cat+|An|)  =  -0.00
                               Iterations  = 132
                         Gamma iterations  =   5
                      Osmotic coefficient  =   0.76220
                         Density of water  =   0.98126
                                  Total H  = 1.109551e+02
                                  Total O  = 6.412510e+01

----------------------------Distribution of species----------------------------

                                                    MacInnes  MacInnes
                                MacInnes       Log       Log       Log    mole V
   Species          Molality    Activity  Molality  Activity     Gamma   cm³/mol

   H+              3.246e-04   1.139e-04    -3.489    -3.943    -0.455      0.00
   OH-             2.182e-09   1.348e-09    -8.661    -8.870    -0.209      5.48
   H2O             5.551e+01   9.168e-01     1.744    -0.038     0.000     18.36
C(4)          3.240e-01
   CO2             3.168e-01   8.171e-01    -0.499    -0.088     0.412     23.79
   HCO3-           7.220e-03   3.374e-03    -2.141    -2.472    -0.330     35.39
   CO3-2           4.799e-08   2.335e-09    -7.319    -8.632    -1.313      6.59
Na            4.003e+00
   Na+             4.003e+00   1.769e+00     0.602     0.248    -0.355      1.93
S(6)          2.001e+00
   SO4-2           1.994e+00   7.427e-02     0.300    -1.129    -1.429     25.99
   HSO4-           6.896e-03   2.918e-03    -2.161    -2.535    -0.374     43.58

------------------------------Saturation indices-------------------------------

  Phase               SI** log IAP   log K(343 K,  80 atm)

  Burkeite         -8.73     -9.40   -0.67  Na6CO3(SO4)2
  CO2(g)            1.77     -0.09   -1.86  CO2	 Pressure  79.7 atm, phi 0.742
  H2O(g)           -0.53     -0.04    0.49  H2O	 Pressure   0.6 atm, phi 0.533
  Mirabilite       -0.97     -1.01   -0.04  Na2SO4:10H2O
  Nahcolite        -1.57    -12.33  -10.75  NaHCO3
  Natron           -7.45     -8.51   -1.06  Na2CO3:10H2O
  Thenardite       -0.31     -0.63   -0.32  Na2SO4
  Trona            -9.22    -20.54  -11.32  Na3H(CO3)2:2H2O

**For a gas, SI = log10(fugacity). Fugacity = pressure * phi / 1 atm.
  For ideal gases, phi = 1.

Reaction step 5.

WARNING: Numerical method failed, switching to numerical derivatives.
Using solution 1.	
Using pure phase assemblage 1.	
Using gas phase 1.	
Using temperature 1.	

-----------------------------------Gas phase-----------------------------------

Total pressure: 80.68      atmospheres          (Peng-Robinson calculation)
    Gas volume:   1.00e+00 liters
  Molar volume:   2.69e-01 liters/mole
   P * Vm / RT:  0.73923  (Compressibility Factor Z) 

                                                        Moles in gas
                                            ----------------------------------
Component         log P           P    phi     Initial       Final       Delta

CO2(g)             1.90   7.974e+01  0.776   0.000e+00   3.670e+00   3.670e+00
H2O(g)            -0.03   9.361e-01  0.582   0.000e+00   4.309e-02   4.309e-02

-------------------------------Phase assemblage--------------------------------

                                                      Moles in assemblage
Phase               SI  log IAP  log K(T, P)   Initial       Final       Delta

CO2(g)            1.79    -0.14     -1.93    1.000e+01   6.041e+00  -3.959e+00

-----------------------------Solution composition------------------------------

	Elements           Molality       Moles

	C                 2.893e-01   2.890e-01
	Na                4.004e+00   4.000e+00
	S                 2.002e+00   2.000e+00

----------------------------Description of solution----------------------------

                                       pH  =   4.160      Charge balance
                                       pe  =   4.000      Adjusted to redox equilibrium
       Specific Conductance (µS/cm, 85°C)  = 84643
                          Density (g/cm³)  =   1.18612
                               Volume (L)  =   1.09266
                        Activity of water  =   0.916
                           Ionic strength  =   5.998e+00
                       Mass of water (kg)  =   9.991e-01
                 Total alkalinity (eq/kg)  =  -9.465e-14
                       Total CO2 (mol/kg)  =   2.893e-01
                         Temperature (°C)  =  85.00
                           Pressure (atm)  = 80.68
                  Electrical balance (eq)  =  -1.010e-10
 Percent error, 100*(Cat-|An|)/(Cat+|An|)  =  -0.00
                               Iterations  = 133
                         Gamma iterations  =   5
                      Osmotic coefficient  =   0.77766
                         Density of water  =   0.97225
                                  Total H  = 1.109263e+02
                                  Total O  = 6.404120e+01

----------------------------Distribution of species----------------------------

                                                    MacInnes  MacInnes
                                MacInnes       Log       Log       Log    mole V
   Species          Molality    Activity  Molality  Activity     Gamma   cm³/mol

   H+              2.316e-04   6.911e-05    -3.635    -4.160    -0.525      0.00
   OH-             6.783e-09   4.397e-09    -8.169    -8.357    -0.188      5.32
   H2O             5.551e+01   9.156e-01     1.744    -0.038     0.000     18.53
C(4)          2.893e-01
   CO2             2.811e-01   7.251e-01    -0.551    -0.140     0.412     22.84
   HCO3-           8.200e-03   4.401e-03    -2.086    -2.356    -0.270     34.95
   CO3-2           8.756e-08   5.007e-09    -7.058    -8.300    -1.243      5.39
Na            4.004e+00
   Na+             4.004e+00   1.699e+00     0.602     0.230    -0.372      2.00
S(6)          2.002e+00
   SO4-2           1.994e+00   8.864e-02     0.300    -1.052    -1.352     25.11
   HSO4-           7.969e-03   3.399e-03    -2.099    -2.469    -0.370     43.88

------------------------------Saturation indices-------------------------------

  Phase               SI** log IAP   log K(358 K,  81 atm)

  Burkeite         -8.35     -9.02   -0.67  Na6CO3(SO4)2
  CO2(g)            1.79     -0.14   -1.93  CO2	 Pressure  79.7 atm, phi 0.776
  H2O(g)           -0.26     -0.04    0.23  H2O	 Pressure   0.9 atm, phi 0.582
  Mirabilite       -0.83     -0.97   -0.15  Na2SO4:10H2O
  Nahcolite        -1.48    -12.23  -10.75  NaHCO3
  Natron           -7.17     -8.22   -1.05  Na2CO3:10H2O
  Thenardite       -0.27     -0.59   -0.32  Na2SO4
  Trona            -8.82    -20.15  -11.32  Na3H(CO3)2:2H2O

**For a gas, SI = log10(fugacity). Fugacity = pressure * phi / 1 atm.
  For ideal gases, phi = 1.

Reaction step 6.

WARNING: Numerical method failed, switching to numerical derivatives.
Using solution 1.	
Using pure phase assemblage 1.	
Using gas phase 1.	
Using temperature 1.	

-----------------------------------Gas phase-----------------------------------

Total pressure: 81.36      atmospheres          (Peng-Robinson calculation)
    Gas volume:   1.00e+00 liters
  Molar volume:   2.93e-01 liters/mole
   P * Vm / RT:  0.77833  (Compressibility Factor Z) 

                                                        Moles in gas
                                            ----------------------------------
Component         log P           P    phi     Initial       Final       Delta

CO2(g)             1.90   7.983e+01  0.804   0.000e+00   3.350e+00   3.350e+00
H2O(g)             0.18   1.530e+00  0.620   0.000e+00   6.420e-02   6.420e-02

-------------------------------Phase assemblage--------------------------------

                                                      Moles in assemblage
Phase               SI  log IAP  log K(T, P)   Initial       Final       Delta

CO2(g)            1.81    -0.18     -1.99    1.000e+01   6.384e+00  -3.616e+00

-----------------------------Solution composition------------------------------

	Elements           Molality       Moles

	C                 2.666e-01   2.663e-01
	Na                4.005e+00   4.000e+00
	S                 2.003e+00   2.000e+00

----------------------------Description of solution----------------------------

                                       pH  =   4.385      Charge balance
                                       pe  =   4.000      Adjusted to redox equilibrium
       Specific Conductance (µS/cm, 100°C)  = 96442
                          Density (g/cm³)  =   1.17613
                               Volume (L)  =   1.10077
                        Activity of water  =   0.914
                           Ionic strength  =   5.999e+00
                       Mass of water (kg)  =   9.987e-01
                 Total alkalinity (eq/kg)  =   2.135e-12
                       Total CO2 (mol/kg)  =   2.666e-01
                         Temperature (°C)  = 100.00
                           Pressure (atm)  = 81.36
                  Electrical balance (eq)  =  -1.169e-11
 Percent error, 100*(Cat-|An|)/(Cat+|An|)  =  -0.00
                               Iterations  = 132
                         Gamma iterations  =   4
                      Osmotic coefficient  =   0.79343
                         Density of water  =   0.96218
                                  Total H  = 1.108840e+02
                                  Total O  = 6.397452e+01

----------------------------Distribution of species----------------------------

                                                    MacInnes  MacInnes
                                MacInnes       Log       Log       Log    mole V
   Species          Molality    Activity  Molality  Activity     Gamma   cm³/mol

   H+              1.645e-04   4.120e-05    -3.784    -4.385    -0.601      0.00
   OH-             1.949e-08   1.329e-08    -7.710    -7.877    -0.166      5.03
   H2O             5.551e+01   9.142e-01     1.744    -0.039     0.000     18.72
C(4)          2.666e-01
   CO2             2.573e-01   6.639e-01    -0.590    -0.178     0.412     22.14
   HCO3-           9.292e-03   5.745e-03    -2.032    -2.241    -0.209     34.50
   CO3-2           1.539e-07   1.031e-08    -6.813    -7.987    -1.174      4.12
Na            4.005e+00
   Na+             4.005e+00   1.615e+00     0.603     0.208    -0.395      2.06
S(6)          2.003e+00
   SO4-2           1.994e+00   1.057e-01     0.300    -0.976    -1.276     24.20
   HSO4-           9.128e-03   3.936e-03    -2.040    -2.405    -0.365     44.11

------------------------------Saturation indices-------------------------------

  Phase               SI** log IAP   log K(373 K,  81 atm)

  Burkeite         -8.02     -8.69   -0.67  Na6CO3(SO4)2
  CO2(g)            1.81     -0.18   -1.99  CO2	 Pressure  79.8 atm, phi 0.804
  H2O(g)           -0.02     -0.04   -0.02  H2O	 Pressure   1.5 atm, phi 0.620
  Mirabilite       -0.42     -0.95   -0.53  Na2SO4:10H2O
  Nahcolite        -1.41    -12.16  -10.75  NaHCO3
  Natron           -6.91     -7.96   -1.05  Na2CO3:10H2O
  Thenardite       -0.24     -0.56   -0.32  Na2SO4
  Trona            -8.49    -19.81  -11.32  Na3H(CO3)2:2H2O

**For a gas, SI = log10(fugacity). Fugacity = pressure * phi / 1 atm.
  For ideal gases, phi = 1.

Reaction step 7.

WARNING: Numerical method failed, switching to numerical derivatives.
Using solution 1.	
Using pure phase assemblage 1.	
Using gas phase 1.	
Using temperature 1.	

-----------------------------------Gas phase-----------------------------------

Total pressure: 82.35      atmospheres          (Peng-Robinson calculation)
    Gas volume:   1.00e+00 liters
  Molar volume:   3.13e-01 liters/mole
   P * Vm / RT:  0.80799  (Compressibility Factor Z) 

                                                        Moles in gas
                                            ----------------------------------
Component         log P           P    phi     Initial       Final       Delta

CO2(g)             1.90   7.993e+01  0.827   0.000e+00   3.106e+00   3.106e+00
H2O(g)             0.38   2.417e+00  0.651   0.000e+00   9.393e-02   9.393e-02

-------------------------------Phase assemblage--------------------------------

                                                      Moles in assemblage
Phase               SI  log IAP  log K(T, P)   Initial       Final       Delta

CO2(g)            1.82    -0.20     -2.03    1.000e+01   6.642e+00  -3.358e+00

-----------------------------Solution composition------------------------------

	Elements           Molality       Moles

	C                 2.525e-01   2.520e-01
	Na                4.008e+00   4.000e+00
	S                 2.004e+00   2.000e+00

----------------------------Description of solution----------------------------

                                       pH  =   4.617      Charge balance
                                       pe  =   4.000      Adjusted to redox equilibrium
       Specific Conductance (µS/cm, 115°C)  = 109672
                          Density (g/cm³)  =   1.16097
                               Volume (L)  =   1.11414
                        Activity of water  =   0.913
                           Ionic strength  =   6.001e+00
                       Mass of water (kg)  =   9.981e-01
                 Total alkalinity (eq/kg)  =   3.122e-12
                       Total CO2 (mol/kg)  =   2.525e-01
                         Temperature (°C)  = 115.00
                           Pressure (atm)  = 82.35
                  Electrical balance (eq)  =  -1.823e-11
 Percent error, 100*(Cat-|An|)/(Cat+|An|)  =  -0.00
                               Iterations  = 133
                         Gamma iterations  =   4
                      Osmotic coefficient  =   0.80999
                         Density of water  =   0.94708
                                  Total H  = 1.108246e+02
                                  Total O  = 6.391625e+01

----------------------------Distribution of species----------------------------

                                                    MacInnes  MacInnes
                                MacInnes       Log       Log       Log    mole V
   Species          Molality    Activity  Molality  Activity     Gamma   cm³/mol

   H+              1.159e-04   2.418e-05    -3.936    -4.617    -0.681      0.00
   OH-             5.213e-08   3.754e-08    -7.283    -7.426    -0.143      4.52
   H2O             5.551e+01   9.126e-01     1.744    -0.040     0.000     19.02
C(4)          2.525e-01
   CO2             2.419e-01   6.244e-01    -0.616    -0.205     0.412     21.64
   HCO3-           1.053e-02   7.526e-03    -1.978    -2.123    -0.146     33.95
   CO3-2           2.615e-07   2.061e-08    -6.583    -7.686    -1.103      2.48
Na            4.008e+00
   Na+             4.008e+00   1.524e+00     0.603     0.183    -0.420      2.12
S(6)          2.004e+00
   SO4-2           1.993e+00   1.265e-01     0.300    -0.898    -1.197     23.00
   HSO4-           1.041e-02   4.554e-03    -1.983    -2.342    -0.359     44.22

------------------------------Saturation indices-------------------------------

  Phase               SI** log IAP   log K(388 K,  82 atm)

  Burkeite         -7.71     -8.38   -0.67  Na6CO3(SO4)2
  CO2(g)            1.82     -0.20   -2.03  CO2	 Pressure  79.9 atm, phi 0.827
  H2O(g)            0.20     -0.04   -0.24  H2O	 Pressure   2.4 atm, phi 0.651
  Mirabilite        0.28     -0.93   -1.21  Na2SO4:10H2O
  Nahcolite        -1.37    -12.12  -10.75  NaHCO3
  Natron           -6.67     -7.72   -1.04  Na2CO3:10H2O
  Thenardite       -0.21     -0.53   -0.32  Na2SO4
  Trona            -8.20    -19.52  -11.32  Na3H(CO3)2:2H2O

**For a gas, SI = log10(fugacity). Fugacity = pressure * phi / 1 atm.
  For ideal gases, phi = 1.

Reaction step 8.

WARNING: Numerical method failed, switching to numerical derivatives.
Using solution 1.	
Using pure phase assemblage 1.	
Using gas phase 1.	
Using temperature 1.	

-----------------------------------Gas phase-----------------------------------

Total pressure: 83.73      atmospheres          (Peng-Robinson calculation)
    Gas volume:   1.00e+00 liters
  Molar volume:   3.28e-01 liters/mole
   P * Vm / RT:  0.83061  (Compressibility Factor Z) 

                                                        Moles in gas
                                            ----------------------------------
Component         log P           P    phi     Initial       Final       Delta

CO2(g)             1.90   8.004e+01  0.848   0.000e+00   2.913e+00   2.913e+00
H2O(g)             0.57   3.697e+00  0.676   0.000e+00   1.346e-01   1.346e-01

-------------------------------Phase assemblage--------------------------------

                                                      Moles in assemblage
Phase               SI  log IAP  log K(T, P)   Initial       Final       Delta

CO2(g)            1.83    -0.22     -2.05    1.000e+01   6.843e+00  -3.157e+00

-----------------------------Solution composition------------------------------

	Elements           Molality       Moles

	C                 2.446e-01   2.440e-01
	Na                4.011e+00   4.000e+00
	S                 2.005e+00   2.000e+00

----------------------------Description of solution----------------------------

                                       pH  =   4.849      Charge balance
                                       pe  =   4.000      Adjusted to redox equilibrium
       Specific Conductance (µS/cm, 130°C)  = 123337
                          Density (g/cm³)  =   1.14807
                               Volume (L)  =   1.12572
                        Activity of water  =   0.911
                           Ionic strength  =   6.004e+00
                       Mass of water (kg)  =   9.974e-01
                 Total alkalinity (eq/kg)  =   4.208e-12
                       Total CO2 (mol/kg)  =   2.446e-01
                         Temperature (°C)  = 130.00
                           Pressure (atm)  = 83.73
                  Electrical balance (eq)  =  -2.583e-11
 Percent error, 100*(Cat-|An|)/(Cat+|An|)  =  -0.00
                               Iterations  = 134
                         Gamma iterations  =   4
                      Osmotic coefficient  =   0.82453
                         Density of water  =   0.93484
                                  Total H  = 1.107433e+02
                                  Total O  = 6.385967e+01

----------------------------Distribution of species----------------------------

                                                    MacInnes  MacInnes
                                MacInnes       Log       Log       Log    mole V
   Species          Molality    Activity  Molality  Activity     Gamma   cm³/mol

   H+              8.261e-05   1.417e-05    -4.083    -4.849    -0.766      0.00
   OH-             1.300e-07   9.857e-08    -6.886    -7.006    -0.120      3.94
   H2O             5.551e+01   9.112e-01     1.744    -0.040     0.000     19.27
C(4)          2.446e-01
   CO2             2.328e-01   6.010e-01    -0.633    -0.221     0.412     21.28
   HCO3-           1.186e-02   9.781e-03    -1.926    -2.010    -0.084     33.43
   CO3-2           4.312e-07   3.915e-08    -6.365    -7.407    -1.042      1.13
Na            4.011e+00
   Na+             4.011e+00   1.421e+00     0.603     0.153    -0.451      2.20
S(6)          2.005e+00
   SO4-2           1.994e+00   1.486e-01     0.300    -0.828    -1.128     22.21
   HSO4-           1.178e-02   5.213e-03    -1.929    -2.283    -0.354     44.37

------------------------------Saturation indices-------------------------------

  Phase               SI** log IAP   log K(403 K,  84 atm)

  Burkeite         -7.48     -8.15   -0.67  Na6CO3(SO4)2
  CO2(g)            1.83     -0.22   -2.05  CO2	 Pressure  80.0 atm, phi 0.848
  H2O(g)            0.40     -0.04   -0.44  H2O	 Pressure   3.7 atm, phi 0.676
  Mirabilite        1.27     -0.93   -2.19  Na2SO4:10H2O
  Nahcolite        -1.36    -12.10  -10.75  NaHCO3
  Natron           -6.47     -7.51   -1.04  Na2CO3:10H2O
  Thenardite       -0.20     -0.52   -0.32  Na2SO4
  Trona            -7.97    -19.29  -11.32  Na3H(CO3)2:2H2O

**For a gas, SI = log10(fugacity). Fugacity = pressure * phi / 1 atm.
  For ideal gases, phi = 1.

Reaction step 9.

WARNING: Numerical method failed, switching to numerical derivatives.
Using solution 1.	
Using pure phase assemblage 1.	
Using gas phase 1.	
Using temperature 1.	

-----------------------------------Gas phase-----------------------------------

Total pressure: 85.63      atmospheres          (Peng-Robinson calculation)
    Gas volume:   1.00e+00 liters
  Molar volume:   3.40e-01 liters/mole
   P * Vm / RT:  0.84761  (Compressibility Factor Z) 

                                                        Moles in gas
                                            ----------------------------------
Component         log P           P    phi     Initial       Final       Delta

CO2(g)             1.90   8.014e+01  0.865   0.000e+00   2.756e+00   2.756e+00
H2O(g)             0.74   5.490e+00  0.694   0.000e+00   1.888e-01   1.888e-01

-------------------------------Phase assemblage--------------------------------

                                                      Moles in assemblage
Phase               SI  log IAP  log K(T, P)   Initial       Final       Delta

CO2(g)            1.84    -0.23     -2.07    1.000e+01   7.004e+00  -2.996e+00

-----------------------------Solution composition------------------------------

	Elements           Molality       Moles

	C                 2.419e-01   2.410e-01
	Na                4.015e+00   4.000e+00
	S                 2.007e+00   2.000e+00

----------------------------Description of solution----------------------------

                                       pH  =   5.082      Charge balance
                                       pe  =   4.000      Adjusted to redox equilibrium
       Specific Conductance (µS/cm, 145°C)  = 139219
                          Density (g/cm³)  =   1.13351
                               Volume (L)  =   1.13920
                        Activity of water  =   0.910
                           Ionic strength  =   6.009e+00
                       Mass of water (kg)  =   9.964e-01
                 Total alkalinity (eq/kg)  =  -9.828e-12
                       Total CO2 (mol/kg)  =   2.419e-01
                         Temperature (°C)  = 145.00
                           Pressure (atm)  = 85.63
                  Electrical balance (eq)  =   6.216e-11
 Percent error, 100*(Cat-|An|)/(Cat+|An|)  =   0.00
                               Iterations  = 133
                         Gamma iterations  =   4
                      Osmotic coefficient  =   0.83774
                         Density of water  =   0.92163
                                  Total H  = 1.106349e+02
                                  Total O  = 6.379938e+01

----------------------------Distribution of species----------------------------

                                                    MacInnes  MacInnes
                                MacInnes       Log       Log       Log    mole V
   Species          Molality    Activity  Molality  Activity     Gamma   cm³/mol

   H+              5.932e-05   8.280e-06    -4.227    -5.082    -0.855      0.00
   OH-             3.044e-07   2.424e-07    -6.517    -6.615    -0.099      3.20
   H2O             5.551e+01   9.098e-01     1.744    -0.041     0.000     19.55
C(4)          2.419e-01
   CO2             2.285e-01   5.904e-01    -0.641    -0.229     0.412     21.08
   HCO3-           1.332e-02   1.264e-02    -1.875    -1.898    -0.023     32.85
   CO3-2           6.921e-07   7.134e-08    -6.160    -7.147    -0.987     -0.17
Na            4.015e+00
   Na+             4.015e+00   1.313e+00     0.604     0.118    -0.485      2.32
S(6)          2.007e+00
   SO4-2           1.994e+00   1.720e-01     0.300    -0.765    -1.064     21.65
   HSO4-           1.326e-02   5.922e-03    -1.877    -2.228    -0.350     44.51

------------------------------Saturation indices-------------------------------

  Phase               SI** log IAP   log K(418 K,  86 atm)

  Burkeite         -7.30     -7.97   -0.67  Na6CO3(SO4)2
  CO2(g)            1.84     -0.23   -2.07  CO2	 Pressure  80.1 atm, phi 0.865
  H2O(g)            0.58     -0.04   -0.62  H2O	 Pressure   5.5 atm, phi 0.694
  Mirabilite        2.54     -0.94   -3.48  Na2SO4:10H2O
  Nahcolite        -1.37    -12.11  -10.74  NaHCO3
  Natron           -6.28     -7.32   -1.04  Na2CO3:10H2O
  Thenardite       -0.21     -0.53   -0.32  Na2SO4
  Trona            -7.78    -19.10  -11.32  Na3H(CO3)2:2H2O

**For a gas, SI = log10(fugacity). Fugacity = pressure * phi / 1 atm.
  For ideal gases, phi = 1.

Reaction step 10.

WARNING: Numerical method failed, switching to numerical derivatives.
Using solution 1.	
Using pure phase assemblage 1.	
Using gas phase 1.	
Using temperature 1.	

-----------------------------------Gas phase-----------------------------------

Total pressure: 88.16      atmospheres          (Peng-Robinson calculation)
    Gas volume:   1.00e+00 liters
  Molar volume:   3.47e-01 liters/mole
   P * Vm / RT:  0.85985  (Compressibility Factor Z) 

                                                        Moles in gas
                                            ----------------------------------
Component         log P           P    phi     Initial       Final       Delta

CO2(g)             1.90   8.023e+01  0.880   0.000e+00   2.625e+00   2.625e+00
H2O(g)             0.90   7.936e+00  0.706   0.000e+00   2.596e-01   2.596e-01

-------------------------------Phase assemblage--------------------------------

                                                      Moles in assemblage
Phase               SI  log IAP  log K(T, P)   Initial       Final       Delta

CO2(g)            1.85    -0.23     -2.08    1.000e+01   7.133e+00  -2.867e+00

-----------------------------Solution composition------------------------------

	Elements           Molality       Moles

	C                 2.432e-01   2.420e-01
	Na                4.020e+00   4.000e+00
	S                 2.010e+00   2.000e+00

----------------------------Description of solution----------------------------

                                       pH  =   5.315      Charge balance
                                       pe  =   4.000      Adjusted to redox equilibrium
       Specific Conductance (µS/cm, 160°C)  = 157098
                          Density (g/cm³)  =   1.11711
                               Volume (L)  =   1.15482
                        Activity of water  =   0.908
                           Ionic strength  =   6.015e+00
                       Mass of water (kg)  =   9.951e-01
                 Total alkalinity (eq/kg)  =   3.030e-13
                       Total CO2 (mol/kg)  =   2.432e-01
                         Temperature (°C)  = 160.00
                           Pressure (atm)  = 88.16
                  Electrical balance (eq)  =  -3.026e-10
 Percent error, 100*(Cat-|An|)/(Cat+|An|)  =  -0.00
                               Iterations  = 142
                         Gamma iterations  =   5
                      Osmotic coefficient  =   0.84926
                         Density of water  =   0.90745
                                  Total H  = 1.104931e+02
                                  Total O  = 6.373058e+01

----------------------------Distribution of species----------------------------

                                                    MacInnes  MacInnes
                                MacInnes       Log       Log       Log    mole V
   Species          Molality    Activity  Molality  Activity     Gamma   cm³/mol

   H+              4.305e-05   4.843e-06    -4.366    -5.315    -0.949      0.00
   OH-             6.711e-07   5.597e-07    -6.173    -6.252    -0.079      2.27
   H2O             5.551e+01   9.085e-01     1.744    -0.042     0.000     19.85
C(4)          2.432e-01
   CO2             2.283e-01   5.904e-01    -0.641    -0.229     0.413     21.01
   HCO3-           1.489e-02   1.622e-02    -1.827    -1.790     0.037     32.20
   CO3-2           1.084e-06   1.246e-07    -5.965    -6.904    -0.940     -1.42
Na            4.020e+00
   Na+             4.020e+00   1.202e+00     0.604     0.080    -0.524      2.48
S(6)          2.010e+00
   SO4-2           1.995e+00   1.955e-01     0.300    -0.709    -1.009     21.39
   HSO4-           1.485e-02   6.668e-03    -1.828    -2.176    -0.348     44.66

------------------------------Saturation indices-------------------------------

  Phase               SI** log IAP   log K(433 K,  88 atm)

  Burkeite         -7.17     -7.84   -0.67  Na6CO3(SO4)2
  CO2(g)            1.85     -0.23   -2.08  CO2	 Pressure  80.2 atm, phi 0.880
  H2O(g)            0.75     -0.04   -0.79  H2O	 Pressure   7.9 atm, phi 0.706
  Mirabilite        4.11     -0.97   -5.07  Na2SO4:10H2O
  Nahcolite        -1.40    -12.14  -10.74  NaHCO3
  Natron           -6.12     -7.16   -1.04  Na2CO3:10H2O
  Thenardite       -0.23     -0.55   -0.32  Na2SO4
  Trona            -7.65    -18.97  -11.32  Na3H(CO3)2:2H2O

**For a gas, SI = log10(fugacity). Fugacity = pressure * phi / 1 atm.
  For ideal gases, phi = 1.

------------------
End of simulation.
------------------

------------------------------------
Reading input data for simulation 3.
------------------------------------

-----------------------------
End of Run after 0.3 Seconds.
-----------------------------

