   Input file: CO2_conc_PR_EQ
  Output file: CO2_conc_PR_EQ.out
Database file: ../database/vreeqc.dat

------------------
Reading data base.
------------------

	KNOBS
	SOLUTION_MASTER_SPECIES
	SOLUTION_SPECIES
	PHASES
	EXCHANGE_MASTER_SPECIES
	EXCHANGE_SPECIES
	SURFACE_MASTER_SPECIES
	SURFACE_SPECIES
	RATES
	END
------------------------------------
Reading input data for simulation 1.
------------------------------------

	database ../database/vreeqc.dat
	SOLUTION 1
	SELECTED_OUTPUT
	 reset false
	 file co2.prn
	USER_PUNCH
	  1 sc$ = chr$(59)
	 10 for i = 1.1 to 520 step 20
	 20   punch 'SOLUTION 1' + sc$ + ' -temp 25' + sc$ + '-pressure ' + str$(i) + EOL$ + 'EQUILIBRIUM_PHASES' + sc$ + ' CO2(g) ' + str$(log10(i)) + EOL$ + 'END' + EOL$
	 30 next i
	END
-------------------------------------------
Beginning of initial solution calculations.
-------------------------------------------

Initial solution 1.	

WARNING: USER_PUNCH: Headings count doesn't match number of calls to PUNCH.

-----------------------------Solution composition------------------------------

	Elements           Molality       Moles

	Pure water     

----------------------------Description of solution----------------------------

                                       pH  =   7.000    
                                       pe  =   4.000    
       Specific Conductance (uS/cm, 25 oC) = 0
                          Density (g/cm3)  =   0.99709
                        Activity of water  =   1.000
                           Ionic strength  =   1.001e-07
                       Mass of water (kg)  =   1.000e+00
                 Total alkalinity (eq/kg)  =   1.082e-10
                    Total carbon (mol/kg)  =   0.000e+00
                       Total CO2 (mol/kg)  =   0.000e+00
                      Temperature (deg C)  =  25.00
                  Electrical balance (eq)  =  -1.082e-10
 Percent error, 100*(Cat-|An|)/(Cat+|An|)  =  -0.05
                               Iterations  =   0
                                  Total H  = 1.110124e+02
                                  Total O  = 5.550622e+01

----------------------------Distribution of species----------------------------

                                            Log       Log         Log     mole V
   Species          Molality    Activity  Molality  Activity     Gamma   cm3/mol

   OH-             1.002e-07   1.001e-07    -6.999    -6.999    -0.000     -3.14
   H+              1.001e-07   1.000e-07    -7.000    -7.000    -0.000      0.00
   H2O             5.551e+01   1.000e+00     1.744     0.000     0.000     18.07
H(0)          1.416e-25
   H2              7.079e-26   7.079e-26   -25.150   -25.150     0.000     20.00
O(0)          0.000e+00
   O2              0.000e+00   0.000e+00   -42.080   -42.080     0.000     35.00

------------------------------Saturation indices-------------------------------

	Phase               SI   log IAP   log K(298 K,   1 atm)

	H2(g)           -22.05    -25.15   -3.10  H2
	H2O(g)           -1.50      0.00    1.50  H2O
	O2(g)           -39.19    -42.08   -2.89  O2


------------------
End of simulation.
------------------

------------------------------------
Reading input data for simulation 2.
------------------------------------

	SELECTED_OUTPUT
	 selected_out false
	USER_GRAPH
	 -plot_csv_file co2_25_50_75.dat
	 -axis_titles "Pressure / atm" "CO2 / (mol/kgw)"
	 -axis_scale x_axis 0 500
	 -axis_scale y_axis 0 2
	 10 x = PR_P("CO2(g)")
	 20 graph_x x # tot("Na")
	 30 graph_y tot("C(4)")
	 -end
	SOLUTION 1
	 temp 25
	pressure   1.1000e+00
	EQUILIBRIUM_PHASES
	 CO2(g)   4.1393e-02
	END
-------------------------------------------
Beginning of initial solution calculations.
-------------------------------------------

Initial solution 1.	

-----------------------------Solution composition------------------------------

	Elements           Molality       Moles

	Pure water     

----------------------------Description of solution----------------------------

                                       pH  =   7.000    
                                       pe  =   4.000    
       Specific Conductance (uS/cm, 25 oC) = 0
                          Density (g/cm3)  =   0.99709
                        Activity of water  =   1.000
                           Ionic strength  =   1.001e-07
                       Mass of water (kg)  =   1.000e+00
                 Total alkalinity (eq/kg)  =   1.169e-10
                    Total carbon (mol/kg)  =   0.000e+00
                       Total CO2 (mol/kg)  =   0.000e+00
                      Temperature (deg C)  =  25.00
                           Pressure (atm)  =  1.10
                  Electrical balance (eq)  =  -1.169e-10
 Percent error, 100*(Cat-|An|)/(Cat+|An|)  =  -0.06
                               Iterations  =   0
                                  Total H  = 1.110124e+02
                                  Total O  = 5.550622e+01

----------------------------Distribution of species----------------------------

                                            Log       Log         Log     mole V
   Species          Molality    Activity  Molality  Activity     Gamma   cm3/mol

   OH-             1.002e-07   1.001e-07    -6.999    -6.999    -0.000     -3.14
   H+              1.001e-07   1.000e-07    -7.000    -7.000    -0.000      0.00
   H2O             5.551e+01   1.000e+00     1.744     0.000     0.000     18.07
H(0)          1.416e-25
   H2              7.079e-26   7.079e-26   -25.150   -25.150     0.000     20.00
O(0)          0.000e+00
   O2              0.000e+00   0.000e+00   -42.080   -42.080     0.000     35.00

------------------------------Saturation indices-------------------------------

	Phase               SI   log IAP   log K(298 K,   1 atm)

	H2(g)           -22.05    -25.15   -3.10  H2
	H2O(g)           -1.50      0.00    1.50  H2O
	O2(g)           -39.19    -42.08   -2.89  O2


-----------------------------------------
Beginning of batch-reaction calculations.
-----------------------------------------

Reaction step 1.

Using solution 1.	
Using pure phase assemblage 1.	

-------------------------------Phase assemblage--------------------------------

                                                      Moles in assemblage
Phase               SI  log IAP  log K(T, P)   Initial       Final       Delta

CO2(g)            0.04    -1.43     -1.47    1.000e+01   9.963e+00  -3.735e-02

-----------------------------Solution composition------------------------------

	Elements           Molality       Moles

	C                 3.735e-02   3.735e-02

----------------------------Description of solution----------------------------

                                       pH  =   3.891      Charge balance
                                       pe  =   1.843      Adjusted to redox equilibrium
       Specific Conductance (uS/cm, 25 oC) = 50
                          Density (g/cm3)  =   0.99710
                        Activity of water  =   0.999
                           Ionic strength  =   1.303e-04
                       Mass of water (kg)  =   1.000e+00
                 Total alkalinity (eq/kg)  =   1.169e-10
                       Total CO2 (mol/kg)  =   3.735e-02
                      Temperature (deg C)  =  25.00
                           Pressure (atm)  =  1.10
                  Electrical balance (eq)  =  -1.169e-10
 Percent error, 100*(Cat-|An|)/(Cat+|An|)  =  -0.00
                               Iterations  =  13
                                  Total H  = 1.110124e+02
                                  Total O  = 5.558091e+01

----------------------------Distribution of species----------------------------

                                            Log       Log         Log     mole V
   Species          Molality    Activity  Molality  Activity     Gamma   cm3/mol

   H+              1.303e-04   1.286e-04    -3.885    -3.891    -0.006      0.00
   OH-             7.881e-11   7.778e-11   -10.103   -10.109    -0.006     -3.14
   H2O             5.551e+01   9.994e-01     1.744    -0.000     0.000     18.07
C(-4)         1.245e-23
   CH4             1.245e-23   1.245e-23   -22.905   -22.905     0.000     33.09
C(4)          3.735e-02
   CO2             3.722e-02   3.722e-02    -1.429    -1.429     0.000     24.56
   HCO3-           1.303e-04   1.286e-04    -3.885    -3.891    -0.006     24.32
   CO3-2           4.942e-11   4.689e-11   -10.306   -10.329    -0.023     -3.76
H(0)          4.835e-15
   H2              2.418e-15   2.418e-15   -14.617   -14.617     0.000     20.00
O(0)          0.000e+00
   O2              0.000e+00   0.000e+00   -63.147   -63.147     0.000     35.00

------------------------------Saturation indices-------------------------------

	Phase               SI   log IAP   log K(298 K,   1 atm)

	CH4(g)          -20.06    -22.90   -2.84  CH4
	CO2(g)            0.04     -1.43   -1.47  CO2	 Pressure   1.1 atm, phi 0.994.
	H2(g)           -11.52    -14.62   -3.10  H2
	H2O(g)           -1.50     -0.00    1.50  H2O
	O2(g)           -60.25    -63.15   -2.89  O2


------------------
End of simulation.
------------------

------------------------------------
Reading input data for simulation 3.
------------------------------------

		SOLUTION 1
	 temp 25
	pressure   2.1100e+01
	EQUILIBRIUM_PHASES
	 CO2(g)   1.3243e+00
	END
-------------------------------------------
Beginning of initial solution calculations.
-------------------------------------------

Initial solution 1.	

-----------------------------Solution composition------------------------------

	Elements           Molality       Moles

	Pure water     

----------------------------Description of solution----------------------------

                                       pH  =   7.000    
                                       pe  =   4.000    
       Specific Conductance (uS/cm, 25 oC) = 0
                          Density (g/cm3)  =   0.99801
                        Activity of water  =   1.000
                           Ionic strength  =   1.010e-07
                       Mass of water (kg)  =   1.000e+00
                 Total alkalinity (eq/kg)  =   1.867e-09
                    Total carbon (mol/kg)  =   0.000e+00
                       Total CO2 (mol/kg)  =   0.000e+00
                      Temperature (deg C)  =  25.00
                           Pressure (atm)  = 21.10
                  Electrical balance (eq)  =  -1.867e-09
 Percent error, 100*(Cat-|An|)/(Cat+|An|)  =  -0.92
                               Iterations  =   0
                                  Total H  = 1.110124e+02
                                  Total O  = 5.550622e+01

----------------------------Distribution of species----------------------------

                                            Log       Log         Log     mole V
   Species          Molality    Activity  Molality  Activity     Gamma   cm3/mol

   OH-             1.019e-07   1.019e-07    -6.992    -6.992    -0.000     -3.14
   H+              1.001e-07   1.000e-07    -7.000    -7.000    -0.000      0.00
   H2O             5.551e+01   1.000e+00     1.744     0.000     0.000     18.05
H(0)          1.393e-25
   H2              6.964e-26   6.964e-26   -25.157   -25.157     0.000     20.00
O(0)          0.000e+00
   O2              0.000e+00   0.000e+00   -42.080   -42.080     0.000     35.00

------------------------------Saturation indices-------------------------------

	Phase               SI   log IAP   log K(298 K,  21 atm)

	H2(g)           -22.06    -25.16   -3.10  H2
	H2O(g)           -1.50      0.00    1.50  H2O
	O2(g)           -39.17    -42.08   -2.91  O2


-----------------------------------------
Beginning of batch-reaction calculations.
-----------------------------------------

Reaction step 1.

Using solution 1.	
Using pure phase assemblage 1.	

-------------------------------Phase assemblage--------------------------------

                                                      Moles in assemblage
Phase               SI  log IAP  log K(T, P)   Initial       Final       Delta

CO2(g)            1.26    -0.20     -1.46    1.000e+01   9.376e+00  -6.244e-01

-----------------------------Solution composition------------------------------

	Elements           Molality       Moles

	C                 6.244e-01   6.244e-01

----------------------------Description of solution----------------------------

                                       pH  =   3.277      Charge balance
                                       pe  =   2.190      Adjusted to redox equilibrium
       Specific Conductance (uS/cm, 25 oC) = 210
                          Density (g/cm3)  =   0.99803
                        Activity of water  =   0.989
                           Ionic strength  =   5.418e-04
                       Mass of water (kg)  =   1.000e+00
                 Total alkalinity (eq/kg)  =   1.867e-09
                       Total CO2 (mol/kg)  =   6.244e-01
                      Temperature (deg C)  =  25.00
                           Pressure (atm)  = 21.10
                  Electrical balance (eq)  =  -1.867e-09
 Percent error, 100*(Cat-|An|)/(Cat+|An|)  =  -0.00
                               Iterations  =  15
                                  Total H  = 1.110124e+02
                                  Total O  = 5.675492e+01

----------------------------Distribution of species----------------------------

                                            Log       Log         Log     mole V
   Species          Molality    Activity  Molality  Activity     Gamma   cm3/mol

   H+              5.418e-04   5.281e-04    -3.266    -3.277    -0.011      0.00
   OH-             1.960e-11   1.908e-11   -10.708   -10.719    -0.012     -3.13
   H2O             5.551e+01   9.894e-01     1.744    -0.005     0.000     18.05
C(-4)         2.747e-20
   CH4             2.747e-20   2.748e-20   -19.561   -19.561     0.000     33.09
C(4)          6.244e-01
   CO2             6.238e-01   6.239e-01    -0.205    -0.205     0.000     24.74
   HCO3-           5.418e-04   5.278e-04    -3.266    -3.278    -0.011     24.32
   CO3-2           5.326e-11   4.796e-11   -10.274   -10.319    -0.046     -3.74
H(0)          1.618e-14
   H2              8.088e-15   8.089e-15   -14.092   -14.092     0.000     20.00
O(0)          0.000e+00
   O2              0.000e+00   0.000e+00   -64.219   -64.219     0.000     35.00

------------------------------Saturation indices-------------------------------

	Phase               SI   log IAP   log K(298 K,  21 atm)

	CH4(g)          -16.74    -19.56   -2.82  CH4
	CO2(g)            1.26     -0.20   -1.46  CO2	 Pressure  21.1 atm, phi 0.886.
	H2(g)           -10.99    -14.09   -3.10  H2
	H2O(g)           -1.50     -0.00    1.50  H2O
	O2(g)           -61.31    -64.22   -2.91  O2


------------------
End of simulation.
------------------

------------------------------------
Reading input data for simulation 4.
------------------------------------

		SOLUTION 1
	 temp 25
	pressure   4.1100e+01
	EQUILIBRIUM_PHASES
	 CO2(g)   1.6138e+00
	END
-------------------------------------------
Beginning of initial solution calculations.
-------------------------------------------

Initial solution 1.	

-----------------------------Solution composition------------------------------

	Elements           Molality       Moles

	Pure water     

----------------------------Description of solution----------------------------

                                       pH  =   7.000    
                                       pe  =   4.000    
       Specific Conductance (uS/cm, 25 oC) = 0
                          Density (g/cm3)  =   0.99893
                        Activity of water  =   1.000
                           Ionic strength  =   1.019e-07
                       Mass of water (kg)  =   1.000e+00
                 Total alkalinity (eq/kg)  =   3.644e-09
                    Total carbon (mol/kg)  =   0.000e+00
                       Total CO2 (mol/kg)  =   0.000e+00
                      Temperature (deg C)  =  25.00
                           Pressure (atm)  = 41.10
                  Electrical balance (eq)  =  -3.644e-09
 Percent error, 100*(Cat-|An|)/(Cat+|An|)  =  -1.79
                               Iterations  =   0
                                  Total H  = 1.110124e+02
                                  Total O  = 5.550622e+01

----------------------------Distribution of species----------------------------

                                            Log       Log         Log     mole V
   Species          Molality    Activity  Molality  Activity     Gamma   cm3/mol

   OH-             1.037e-07   1.037e-07    -6.984    -6.984    -0.000     -3.13
   H+              1.001e-07   1.000e-07    -7.000    -7.000    -0.000      0.00
   H2O             5.551e+01   1.000e+00     1.744     0.000     0.000     18.04
H(0)          1.370e-25
   H2              6.851e-26   6.851e-26   -25.164   -25.164     0.000     20.00
O(0)          0.000e+00
   O2              0.000e+00   0.000e+00   -42.079   -42.079     0.000     35.00

------------------------------Saturation indices-------------------------------

	Phase               SI   log IAP   log K(298 K,  41 atm)

	H2(g)           -22.06    -25.16   -3.10  H2
	H2O(g)           -1.49      0.00    1.49  H2O
	O2(g)           -39.16    -42.08   -2.92  O2


-----------------------------------------
Beginning of batch-reaction calculations.
-----------------------------------------

Reaction step 1.

Using solution 1.	
Using pure phase assemblage 1.	

-------------------------------Phase assemblage--------------------------------

                                                      Moles in assemblage
Phase               SI  log IAP  log K(T, P)   Initial       Final       Delta

CO2(g)            1.47     0.02     -1.45    1.000e+01   8.948e+00  -1.052e+00

-----------------------------Solution composition------------------------------

	Elements           Molality       Moles

	C                 1.052e+00   1.052e+00

----------------------------Description of solution----------------------------

                                       pH  =   3.162      Charge balance
                                       pe  =   2.583      Adjusted to redox equilibrium
       Specific Conductance (uS/cm, 25 oC) = 274
                          Density (g/cm3)  =   0.99896
                        Activity of water  =   0.982
                           Ionic strength  =   7.088e-04
                       Mass of water (kg)  =   1.000e+00
                 Total alkalinity (eq/kg)  =   3.644e-09
                       Total CO2 (mol/kg)  =   1.052e+00
                      Temperature (deg C)  =  25.00
                           Pressure (atm)  = 41.10
                  Electrical balance (eq)  =  -3.644e-09
 Percent error, 100*(Cat-|An|)/(Cat+|An|)  =  -0.00
                               Iterations  =  14
                                  Total H  = 1.110124e+02
                                  Total O  = 5.761099e+01

----------------------------Distribution of species----------------------------

                                            Log       Log         Log     mole V
   Species          Molality    Activity  Molality  Activity     Gamma   cm3/mol

   H+              7.088e-04   6.886e-04    -3.149    -3.162    -0.013      0.00
   OH-             1.524e-11   1.478e-11   -10.817   -10.830    -0.013     -3.13
   H2O             5.551e+01   9.821e-01     1.744    -0.008     0.000     18.04
C(-4)         2.710e-22
   CH4             2.710e-22   2.711e-22   -21.567   -21.567     0.000     33.09
C(4)          1.052e+00
   CO2             1.052e+00   1.052e+00     0.022     0.022     0.000     24.92
   HCO3-           7.088e-04   6.880e-04    -3.149    -3.162    -0.013     24.32
   CO3-2           5.528e-11   4.906e-11   -10.257   -10.309    -0.052     -3.73
H(0)          4.425e-15
   H2              2.212e-15   2.213e-15   -14.655   -14.655     0.000     20.00
O(0)          0.000e+00
   O2              0.000e+00   0.000e+00   -63.113   -63.113     0.000     35.00

------------------------------Saturation indices-------------------------------

	Phase               SI   log IAP   log K(298 K,  41 atm)

	CH4(g)          -18.77    -21.57   -2.80  CH4
	CO2(g)            1.47      0.02   -1.45  CO2	 Pressure  41.1 atm, phi 0.783.
	H2(g)           -11.55    -14.66   -3.10  H2
	H2O(g)           -1.50     -0.01    1.49  H2O
	O2(g)           -60.20    -63.11   -2.92  O2


------------------
End of simulation.
------------------

------------------------------------
Reading input data for simulation 5.
------------------------------------

		SOLUTION 1
	 temp 25
	pressure   6.1100e+01
	EQUILIBRIUM_PHASES
	 CO2(g)   1.7860e+00
	END
-------------------------------------------
Beginning of initial solution calculations.
-------------------------------------------

Initial solution 1.	

-----------------------------Solution composition------------------------------

	Elements           Molality       Moles

	Pure water     

----------------------------Description of solution----------------------------

                                       pH  =   7.000    
                                       pe  =   4.000    
       Specific Conductance (uS/cm, 25 oC) = 0
                          Density (g/cm3)  =   0.99985
                        Activity of water  =   1.000
                           Ionic strength  =   1.028e-07
                       Mass of water (kg)  =   1.000e+00
                 Total alkalinity (eq/kg)  =   5.449e-09
                    Total carbon (mol/kg)  =   0.000e+00
                       Total CO2 (mol/kg)  =   0.000e+00
                      Temperature (deg C)  =  25.00
                           Pressure (atm)  = 61.10
                  Electrical balance (eq)  =  -5.449e-09
 Percent error, 100*(Cat-|An|)/(Cat+|An|)  =  -2.65
                               Iterations  =   0
                                  Total H  = 1.110124e+02
                                  Total O  = 5.550622e+01

----------------------------Distribution of species----------------------------

                                            Log       Log         Log     mole V
   Species          Molality    Activity  Molality  Activity     Gamma   cm3/mol

   OH-             1.055e-07   1.055e-07    -6.977    -6.977    -0.000     -3.13
   H+              1.001e-07   1.000e-07    -7.000    -7.000    -0.000      0.00
   H2O             5.551e+01   1.000e+00     1.744     0.000     0.000     18.02
H(0)          1.348e-25
   H2              6.740e-26   6.740e-26   -25.171   -25.171     0.000     20.00
O(0)          0.000e+00
   O2              0.000e+00   0.000e+00   -42.079   -42.079     0.000     35.00

------------------------------Saturation indices-------------------------------

	Phase               SI   log IAP   log K(298 K,  61 atm)

	H2(g)           -22.07    -25.17   -3.10  H2
	H2O(g)           -1.48      0.00    1.48  H2O
	O2(g)           -39.15    -42.08   -2.93  O2


-----------------------------------------
Beginning of batch-reaction calculations.
-----------------------------------------

Reaction step 1.

Using solution 1.	
Using pure phase assemblage 1.	

-------------------------------Phase assemblage--------------------------------

                                                      Moles in assemblage
Phase               SI  log IAP  log K(T, P)   Initial       Final       Delta

CO2(g)            1.57     0.12     -1.44    1.000e+01   8.670e+00  -1.330e+00

-----------------------------Solution composition------------------------------

	Elements           Molality       Moles

	C                 1.330e+00   1.330e+00

----------------------------Description of solution----------------------------

                                       pH  =   3.109      Charge balance
                                       pe  =   2.478      Adjusted to redox equilibrium
       Specific Conductance (uS/cm, 25 oC) = 310
                          Density (g/cm3)  =   0.99988
                        Activity of water  =   0.977
                           Ionic strength  =   8.027e-04
                       Mass of water (kg)  =   1.000e+00
                 Total alkalinity (eq/kg)  =   5.449e-09
                       Total CO2 (mol/kg)  =   1.330e+00
                      Temperature (deg C)  =  25.00
                           Pressure (atm)  = 61.10
                  Electrical balance (eq)  =  -5.449e-09
 Percent error, 100*(Cat-|An|)/(Cat+|An|)  =  -0.00
                               Iterations  =  14
                                  Total H  = 1.110124e+02
                                  Total O  = 5.816700e+01

----------------------------Distribution of species----------------------------

                                            Log       Log         Log     mole V
   Species          Molality    Activity  Molality  Activity     Gamma   cm3/mol

   H+              8.027e-04   7.785e-04    -3.095    -3.109    -0.013      0.00
   OH-             1.367e-11   1.324e-11   -10.864   -10.878    -0.014     -3.13
   H2O             5.551e+01   9.774e-01     1.744    -0.010     0.000     18.02
C(-4)         6.242e-21
   CH4             6.242e-21   6.243e-21   -20.205   -20.205     0.000     33.09
C(4)          1.330e+00
   CO2             1.330e+00   1.330e+00     0.124     0.124     0.000     25.10
   HCO3-           8.027e-04   7.777e-04    -3.095    -3.109    -0.014     24.32
   CO3-2           5.696e-11   5.019e-11   -10.244   -10.299    -0.055     -3.73
H(0)          9.051e-15
   H2              4.526e-15   4.527e-15   -14.344   -14.344     0.000     20.00
O(0)          0.000e+00
   O2              0.000e+00   0.000e+00   -63.753   -63.753     0.000     35.00

------------------------------Saturation indices-------------------------------

	Phase               SI   log IAP   log K(298 K,  61 atm)

	CH4(g)          -17.42    -20.20   -2.78  CH4
	CO2(g)            1.57      0.12   -1.44  CO2	 Pressure  61.1 atm, phi 0.680.
	H2(g)           -11.24    -14.34   -3.10  H2
	H2O(g)           -1.49     -0.01    1.48  H2O
	O2(g)           -60.82    -63.75   -2.93  O2


------------------
End of simulation.
------------------

------------------------------------
Reading input data for simulation 6.
------------------------------------

		SOLUTION 1
	 temp 25
	pressure   8.1100e+01
	EQUILIBRIUM_PHASES
	 CO2(g)   1.9090e+00
	END
-------------------------------------------
Beginning of initial solution calculations.
-------------------------------------------

Initial solution 1.	

-----------------------------Solution composition------------------------------

	Elements           Molality       Moles

	Pure water     

----------------------------Description of solution----------------------------

                                       pH  =   7.000    
                                       pe  =   4.000    
       Specific Conductance (uS/cm, 25 oC) = 0
                          Density (g/cm3)  =   1.00077
                        Activity of water  =   1.000
                           Ionic strength  =   1.037e-07
                       Mass of water (kg)  =   1.000e+00
                 Total alkalinity (eq/kg)  =   7.283e-09
                    Total carbon (mol/kg)  =   0.000e+00
                       Total CO2 (mol/kg)  =   0.000e+00
                      Temperature (deg C)  =  25.00
                           Pressure (atm)  = 81.10
                  Electrical balance (eq)  =  -7.283e-09
 Percent error, 100*(Cat-|An|)/(Cat+|An|)  =  -3.51
                               Iterations  =   0
                                  Total H  = 1.110124e+02
                                  Total O  = 5.550622e+01

----------------------------Distribution of species----------------------------

                                            Log       Log         Log     mole V
   Species          Molality    Activity  Molality  Activity     Gamma   cm3/mol

   OH-             1.073e-07   1.073e-07    -6.969    -6.969    -0.000     -3.13
   H+              1.001e-07   1.000e-07    -7.000    -7.000    -0.000      0.00
   H2O             5.551e+01   1.000e+00     1.744     0.000     0.000     18.00
H(0)          1.326e-25
   H2              6.631e-26   6.631e-26   -25.178   -25.178     0.000     20.00
O(0)          0.000e+00
   O2              0.000e+00   0.000e+00   -42.079   -42.079     0.000     35.00

------------------------------Saturation indices-------------------------------

	Phase               SI   log IAP   log K(298 K,  81 atm)

	H2(g)           -22.08    -25.18   -3.10  H2
	H2O(g)           -1.48      0.00    1.48  H2O
	O2(g)           -39.14    -42.08   -2.94  O2


-----------------------------------------
Beginning of batch-reaction calculations.
-----------------------------------------

Reaction step 1.

Using solution 1.	
Using pure phase assemblage 1.	

-------------------------------Phase assemblage--------------------------------

                                                      Moles in assemblage
Phase               SI  log IAP  log K(T, P)   Initial       Final       Delta

CO2(g)            1.58     0.14     -1.44    1.000e+01   8.609e+00  -1.391e+00

-----------------------------Solution composition------------------------------

	Elements           Molality       Moles

	C                 1.391e+00   1.391e+00

----------------------------Description of solution----------------------------

                                       pH  =   3.096      Charge balance
                                       pe  =  14.637      Adjusted to redox equilibrium
       Specific Conductance (uS/cm, 25 oC) = 319
                          Density (g/cm3)  =   1.00080
                        Activity of water  =   0.976
                           Ionic strength  =   8.271e-04
                       Mass of water (kg)  =   1.000e+00
                 Total alkalinity (eq/kg)  =   7.283e-09
                       Total CO2 (mol/kg)  =   1.391e+00
                      Temperature (deg C)  =  25.00
                           Pressure (atm)  = 81.10
                  Electrical balance (eq)  =  -7.283e-09
 Percent error, 100*(Cat-|An|)/(Cat+|An|)  =  -0.00
                               Iterations  =  15
                                  Total H  = 1.110124e+02
                                  Total O  = 5.828725e+01

----------------------------Distribution of species----------------------------

                                            Log       Log         Log     mole V
   Species          Molality    Activity  Molality  Activity     Gamma   cm3/mol

   H+              8.271e-04   8.018e-04    -3.082    -3.096    -0.014      0.00
   OH-             1.350e-11   1.306e-11   -10.870   -10.884    -0.014     -3.13
   H2O             5.551e+01   9.763e-01     1.744    -0.010     0.000     18.00
C(-4)         0.000e+00
   CH4             0.000e+00   0.000e+00  -117.371  -117.371     0.000     33.09
C(4)          1.391e+00
   CO2             1.390e+00   1.390e+00     0.143     0.143     0.000     25.28
   HCO3-           8.271e-04   8.010e-04    -3.082    -3.096    -0.014     24.32
   CO3-2           5.839e-11   5.136e-11   -10.234   -10.289    -0.056     -3.73
H(0)          4.538e-39
   H2              2.269e-39   2.269e-39   -38.644   -38.644     0.000     20.00
O(0)          1.358e-15
   O2              6.790e-16   6.791e-16   -15.168   -15.168     0.000     35.00

------------------------------Saturation indices-------------------------------

	Phase               SI   log IAP   log K(298 K,  81 atm)

	CH4(g)         -114.61   -117.37   -2.76  CH4
	CO2(g)            1.58      0.14   -1.44  CO2	 Pressure  81.1 atm, phi 0.547.
	H2(g)           -35.54    -38.64   -3.10  H2
	H2O(g)           -1.49     -0.01    1.48  H2O
	O2(g)           -12.22    -15.17   -2.94  O2


------------------
End of simulation.
------------------

------------------------------------
Reading input data for simulation 7.
------------------------------------

		SOLUTION 1
	 temp 25
	pressure   1.0110e+02
	EQUILIBRIUM_PHASES
	 CO2(g)   2.0048e+00
	END
-------------------------------------------
Beginning of initial solution calculations.
-------------------------------------------

Initial solution 1.	

-----------------------------Solution composition------------------------------

	Elements           Molality       Moles

	Pure water     

----------------------------Description of solution----------------------------

                                       pH  =   7.000    
                                       pe  =   4.000    
       Specific Conductance (uS/cm, 25 oC) = 0
                          Density (g/cm3)  =   1.00169
                        Activity of water  =   1.000
                           Ionic strength  =   1.046e-07
                       Mass of water (kg)  =   1.000e+00
                 Total alkalinity (eq/kg)  =   9.146e-09
                    Total carbon (mol/kg)  =   0.000e+00
                       Total CO2 (mol/kg)  =   0.000e+00
                      Temperature (deg C)  =  25.00
                           Pressure (atm)  = 101.10
                  Electrical balance (eq)  =  -9.146e-09
 Percent error, 100*(Cat-|An|)/(Cat+|An|)  =  -4.37
                               Iterations  =   0
                                  Total H  = 1.110124e+02
                                  Total O  = 5.550622e+01

----------------------------Distribution of species----------------------------

                                            Log       Log         Log     mole V
   Species          Molality    Activity  Molality  Activity     Gamma   cm3/mol

   OH-             1.092e-07   1.092e-07    -6.962    -6.962    -0.000     -3.13
   H+              1.001e-07   1.000e-07    -7.000    -7.000    -0.000      0.00
   H2O             5.551e+01   1.000e+00     1.744     0.000     0.000     17.99
H(0)          1.305e-25
   H2              6.523e-26   6.523e-26   -25.186   -25.186     0.000     20.00
O(0)          0.000e+00
   O2              0.000e+00   0.000e+00   -42.078   -42.078     0.000     35.00

------------------------------Saturation indices-------------------------------

	Phase               SI   log IAP   log K(298 K, 101 atm)

	H2(g)           -22.08    -25.19   -3.10  H2
	H2O(g)           -1.47      0.00    1.47  H2O
	O2(g)           -39.12    -42.08   -2.96  O2


-----------------------------------------
Beginning of batch-reaction calculations.
-----------------------------------------

Reaction step 1.

Using solution 1.	
Using pure phase assemblage 1.	

-------------------------------Phase assemblage--------------------------------

                                                      Moles in assemblage
Phase               SI  log IAP  log K(T, P)   Initial       Final       Delta

CO2(g)            1.58     0.15     -1.43    1.000e+01   8.573e+00  -1.427e+00

-----------------------------Solution composition------------------------------

	Elements           Molality       Moles

	C                 1.427e+00   1.427e+00

----------------------------Description of solution----------------------------

                                       pH  =   3.087      Charge balance
                                       pe  =   2.691      Adjusted to redox equilibrium
       Specific Conductance (uS/cm, 25 oC) = 326
                          Density (g/cm3)  =   1.00172
                        Activity of water  =   0.976
                           Ionic strength  =   8.447e-04
                       Mass of water (kg)  =   1.000e+00
                 Total alkalinity (eq/kg)  =   9.146e-09
                       Total CO2 (mol/kg)  =   1.427e+00
                      Temperature (deg C)  =  25.00
                           Pressure (atm)  = 101.10
                  Electrical balance (eq)  =  -9.146e-09
 Percent error, 100*(Cat-|An|)/(Cat+|An|)  =  -0.00
                               Iterations  =  16
                                  Total H  = 1.110124e+02
                                  Total O  = 5.836050e+01

----------------------------Distribution of species----------------------------

                                            Log       Log         Log     mole V
   Species          Molality    Activity  Molality  Activity     Gamma   cm3/mol

   H+              8.447e-04   8.186e-04    -3.073    -3.087    -0.014      0.00
   OH-             1.344e-11   1.301e-11   -10.871   -10.886    -0.014     -3.13
   H2O             5.551e+01   9.757e-01     1.744    -0.011     0.000     17.99
C(-4)         1.842e-22
   CH4             1.842e-22   1.843e-22   -21.735   -21.735     0.000     33.09
C(4)          1.427e+00
   CO2             1.426e+00   1.427e+00     0.154     0.154     0.000     25.46
   HCO3-           8.447e-04   8.178e-04    -3.073    -3.087    -0.014     24.32
   CO3-2           5.982e-11   5.255e-11   -10.223   -10.279    -0.056     -3.73
H(0)          3.628e-15
   H2              1.814e-15   1.814e-15   -14.741   -14.741     0.000     20.00
O(0)          0.000e+00
   O2              0.000e+00   0.000e+00   -62.988   -62.988     0.000     35.00

------------------------------Saturation indices-------------------------------

	Phase               SI   log IAP   log K(298 K, 101 atm)

	CH4(g)          -18.99    -21.73   -2.74  CH4
	CO2(g)            1.58      0.15   -1.43  CO2	 Pressure 101.1 atm, phi 0.460.
	H2(g)           -11.64    -14.74   -3.10  H2
	H2O(g)           -1.48     -0.01    1.47  H2O
	O2(g)           -60.03    -62.99   -2.96  O2


------------------
End of simulation.
------------------

------------------------------------
Reading input data for simulation 8.
------------------------------------

		SOLUTION 1
	 temp 25
	pressure   1.2110e+02
	EQUILIBRIUM_PHASES
	 CO2(g)   2.0831e+00
	END
-------------------------------------------
Beginning of initial solution calculations.
-------------------------------------------

Initial solution 1.	

-----------------------------Solution composition------------------------------

	Elements           Molality       Moles

	Pure water     

----------------------------Description of solution----------------------------

                                       pH  =   7.000    
                                       pe  =   4.000    
       Specific Conductance (uS/cm, 25 oC) = 0
                          Density (g/cm3)  =   1.00261
                        Activity of water  =   1.000
                           Ionic strength  =   1.056e-07
                       Mass of water (kg)  =   1.000e+00
                 Total alkalinity (eq/kg)  =   1.104e-08
                    Total carbon (mol/kg)  =   0.000e+00
                       Total CO2 (mol/kg)  =   0.000e+00
                      Temperature (deg C)  =  25.00
                           Pressure (atm)  = 121.10
                  Electrical balance (eq)  =  -1.104e-08
 Percent error, 100*(Cat-|An|)/(Cat+|An|)  =  -5.23
                               Iterations  =   0
                                  Total H  = 1.110124e+02
                                  Total O  = 5.550622e+01

----------------------------Distribution of species----------------------------

                                            Log       Log         Log     mole V
   Species          Molality    Activity  Molality  Activity     Gamma   cm3/mol

   OH-             1.111e-07   1.110e-07    -6.954    -6.954    -0.000     -3.13
   H+              1.001e-07   1.000e-07    -7.000    -7.000    -0.000      0.00
   H2O             5.551e+01   1.000e+00     1.744     0.000     0.000     17.97
H(0)          1.283e-25
   H2              6.417e-26   6.417e-26   -25.193   -25.193     0.000     20.00
O(0)          0.000e+00
   O2              0.000e+00   0.000e+00   -42.078   -42.078     0.000     35.00

------------------------------Saturation indices-------------------------------

	Phase               SI   log IAP   log K(298 K, 121 atm)

	H2(g)           -22.09    -25.19   -3.10  H2
	H2O(g)           -1.46      0.00    1.46  H2O
	O2(g)           -39.11    -42.08   -2.97  O2


-----------------------------------------
Beginning of batch-reaction calculations.
-----------------------------------------

Reaction step 1.

Using solution 1.	
Using pure phase assemblage 1.	

-------------------------------Phase assemblage--------------------------------

                                                      Moles in assemblage
Phase               SI  log IAP  log K(T, P)   Initial       Final       Delta

CO2(g)            1.59     0.16     -1.42    1.000e+01   8.540e+00  -1.460e+00

-----------------------------Solution composition------------------------------

	Elements           Molality       Moles

	C                 1.460e+00   1.460e+00

----------------------------Description of solution----------------------------

                                       pH  =   3.079      Charge balance
                                       pe  =   2.404      Adjusted to redox equilibrium
       Specific Conductance (uS/cm, 25 oC) = 332
                          Density (g/cm3)  =   1.00265
                        Activity of water  =   0.975
                           Ionic strength  =   8.615e-04
                       Mass of water (kg)  =   1.000e+00
                 Total alkalinity (eq/kg)  =   1.104e-08
                       Total CO2 (mol/kg)  =   1.460e+00
                      Temperature (deg C)  =  25.00
                           Pressure (atm)  = 121.10
                  Electrical balance (eq)  =  -1.104e-08
 Percent error, 100*(Cat-|An|)/(Cat+|An|)  =  -0.00
                               Iterations  =  14
                                  Total H  = 1.110124e+02
                                  Total O  = 5.842639e+01

----------------------------Distribution of species----------------------------

                                            Log       Log         Log     mole V
   Species          Molality    Activity  Molality  Activity     Gamma   cm3/mol

   H+              8.615e-04   8.346e-04    -3.065    -3.079    -0.014      0.00
   OH-             1.341e-11   1.297e-11   -10.873   -10.887    -0.014     -3.13
   H2O             5.551e+01   9.752e-01     1.744    -0.011     0.000     17.97
C(-4)         4.228e-20
   CH4             4.228e-20   4.229e-20   -19.374   -19.374     0.000     33.09
C(4)          1.460e+00
   CO2             1.459e+00   1.460e+00     0.164     0.164     0.000     25.64
   HCO3-           8.615e-04   8.338e-04    -3.065    -3.079    -0.014     24.32
   CO3-2           6.128e-11   5.376e-11   -10.213   -10.270    -0.057     -3.73
H(0)          1.393e-14
   H2              6.964e-15   6.966e-15   -14.157   -14.157     0.000     20.00
O(0)          0.000e+00
   O2              0.000e+00   0.000e+00   -64.171   -64.171     0.000     35.00

------------------------------Saturation indices-------------------------------

	Phase               SI   log IAP   log K(298 K, 121 atm)

	CH4(g)          -16.65    -19.37   -2.72  CH4
	CO2(g)            1.59      0.16   -1.42  CO2	 Pressure 121.1 atm, phi 0.402.
	H2(g)           -11.06    -14.16   -3.10  H2
	H2O(g)           -1.48     -0.01    1.46  H2O
	O2(g)           -61.20    -64.17   -2.97  O2


------------------
End of simulation.
------------------

------------------------------------
Reading input data for simulation 9.
------------------------------------

		SOLUTION 1
	 temp 25
	pressure   1.4110e+02
	EQUILIBRIUM_PHASES
	 CO2(g)   2.1495e+00
	END
-------------------------------------------
Beginning of initial solution calculations.
-------------------------------------------

Initial solution 1.	

-----------------------------Solution composition------------------------------

	Elements           Molality       Moles

	Pure water     

----------------------------Description of solution----------------------------

                                       pH  =   7.000    
                                       pe  =   4.000    
       Specific Conductance (uS/cm, 25 oC) = 0
                          Density (g/cm3)  =   1.00353
                        Activity of water  =   1.000
                           Ionic strength  =   1.065e-07
                       Mass of water (kg)  =   1.000e+00
                 Total alkalinity (eq/kg)  =   1.296e-08
                    Total carbon (mol/kg)  =   0.000e+00
                       Total CO2 (mol/kg)  =   0.000e+00
                      Temperature (deg C)  =  25.00
                           Pressure (atm)  = 141.10
                  Electrical balance (eq)  =  -1.296e-08
 Percent error, 100*(Cat-|An|)/(Cat+|An|)  =  -6.08
                               Iterations  =   0
                                  Total H  = 1.110124e+02
                                  Total O  = 5.550622e+01

----------------------------Distribution of species----------------------------

                                            Log       Log         Log     mole V
   Species          Molality    Activity  Molality  Activity     Gamma   cm3/mol

   OH-             1.130e-07   1.130e-07    -6.947    -6.947    -0.000     -3.13
   H+              1.001e-07   1.000e-07    -7.000    -7.000    -0.000      0.00
   H2O             5.551e+01   1.000e+00     1.744     0.000     0.000     17.95
H(0)          1.263e-25
   H2              6.313e-26   6.313e-26   -25.200   -25.200     0.000     20.00
O(0)          0.000e+00
   O2              0.000e+00   0.000e+00   -42.078   -42.078     0.000     35.00

------------------------------Saturation indices-------------------------------

	Phase               SI   log IAP   log K(298 K, 141 atm)

	H2(g)           -22.10    -25.20   -3.10  H2
	H2O(g)           -1.46      0.00    1.46  H2O
	O2(g)           -39.10    -42.08   -2.98  O2


-----------------------------------------
Beginning of batch-reaction calculations.
-----------------------------------------

Reaction step 1.

Using solution 1.	
Using pure phase assemblage 1.	

-------------------------------Phase assemblage--------------------------------

                                                      Moles in assemblage
Phase               SI  log IAP  log K(T, P)   Initial       Final       Delta

CO2(g)            1.59     0.17     -1.41    1.000e+01   8.509e+00  -1.491e+00

-----------------------------Solution composition------------------------------

	Elements           Molality       Moles

	C                 1.491e+00   1.491e+00

----------------------------Description of solution----------------------------

                                       pH  =   3.070      Charge balance
                                       pe  =   2.399      Adjusted to redox equilibrium
       Specific Conductance (uS/cm, 25 oC) = 339
                          Density (g/cm3)  =   1.00357
                        Activity of water  =   0.975
                           Ionic strength  =   8.778e-04
                       Mass of water (kg)  =   1.000e+00
                 Total alkalinity (eq/kg)  =   1.296e-08
                       Total CO2 (mol/kg)  =   1.491e+00
                      Temperature (deg C)  =  25.00
                           Pressure (atm)  = 141.10
                  Electrical balance (eq)  =  -1.296e-08
 Percent error, 100*(Cat-|An|)/(Cat+|An|)  =  -0.00
                               Iterations  =  14
                                  Total H  = 1.110124e+02
                                  Total O  = 5.848752e+01

----------------------------Distribution of species----------------------------

                                            Log       Log         Log     mole V
   Species          Molality    Activity  Molality  Activity     Gamma   cm3/mol

   H+              8.778e-04   8.502e-04    -3.057    -3.070    -0.014      0.00
   OH-             1.339e-11   1.295e-11   -10.873   -10.888    -0.015     -3.13
   H2O             5.551e+01   9.746e-01     1.744    -0.011     0.000     17.95
C(-4)         5.255e-20
   CH4             5.255e-20   5.256e-20   -19.279   -19.279     0.000     33.09
C(4)          1.491e+00
   CO2             1.490e+00   1.490e+00     0.173     0.173     0.000     25.82
   HCO3-           8.778e-04   8.493e-04    -3.057    -3.071    -0.014     24.32
   CO3-2           6.278e-11   5.501e-11   -10.202   -10.260    -0.057     -3.72
H(0)          1.451e-14
   H2              7.257e-15   7.258e-15   -14.139   -14.139     0.000     20.00
O(0)          0.000e+00
   O2              0.000e+00   0.000e+00   -64.221   -64.221     0.000     35.00

------------------------------Saturation indices-------------------------------

	Phase               SI   log IAP   log K(298 K, 141 atm)

	CH4(g)          -16.58    -19.28   -2.70  CH4
	CO2(g)            1.59      0.17   -1.41  CO2	 Pressure 141.1 atm, phi 0.360.
	H2(g)           -11.04    -14.14   -3.10  H2
	H2O(g)           -1.47     -0.01    1.46  H2O
	O2(g)           -61.24    -64.22   -2.98  O2


------------------
End of simulation.
------------------

-------------------------------------
Reading input data for simulation 10.
-------------------------------------

		SOLUTION 1
	 temp 25
	pressure   1.6110e+02
	EQUILIBRIUM_PHASES
	 CO2(g)   2.2071e+00
	END
-------------------------------------------
Beginning of initial solution calculations.
-------------------------------------------

Initial solution 1.	

-----------------------------Solution composition------------------------------

	Elements           Molality       Moles

	Pure water     

----------------------------Description of solution----------------------------

                                       pH  =   7.000    
                                       pe  =   4.000    
       Specific Conductance (uS/cm, 25 oC) = 0
                          Density (g/cm3)  =   1.00445
                        Activity of water  =   1.000
                           Ionic strength  =   1.075e-07
                       Mass of water (kg)  =   1.000e+00
                 Total alkalinity (eq/kg)  =   1.491e-08
                    Total carbon (mol/kg)  =   0.000e+00
                       Total CO2 (mol/kg)  =   0.000e+00
                      Temperature (deg C)  =  25.00
                           Pressure (atm)  = 161.10
                  Electrical balance (eq)  =  -1.491e-08
 Percent error, 100*(Cat-|An|)/(Cat+|An|)  =  -6.94
                               Iterations  =   0
                                  Total H  = 1.110124e+02
                                  Total O  = 5.550622e+01

----------------------------Distribution of species----------------------------

                                            Log       Log         Log     mole V
   Species          Molality    Activity  Molality  Activity     Gamma   cm3/mol

   OH-             1.150e-07   1.149e-07    -6.939    -6.940    -0.000     -3.13
   H+              1.001e-07   1.000e-07    -7.000    -7.000    -0.000      0.00
   H2O             5.551e+01   1.000e+00     1.744     0.000     0.000     17.94
H(0)          1.242e-25
   H2              6.211e-26   6.211e-26   -25.207   -25.207     0.000     20.00
O(0)          0.000e+00
   O2              0.000e+00   0.000e+00   -42.078   -42.078     0.000     35.00

------------------------------Saturation indices-------------------------------

	Phase               SI   log IAP   log K(298 K, 161 atm)

	H2(g)           -22.11    -25.21   -3.10  H2
	H2O(g)           -1.45      0.00    1.45  H2O
	O2(g)           -39.08    -42.08   -2.99  O2


-----------------------------------------
Beginning of batch-reaction calculations.
-----------------------------------------

Reaction step 1.

Using solution 1.	
Using pure phase assemblage 1.	

-------------------------------Phase assemblage--------------------------------

                                                      Moles in assemblage
Phase               SI  log IAP  log K(T, P)   Initial       Final       Delta

CO2(g)            1.59     0.18     -1.41    1.000e+01   8.481e+00  -1.519e+00

-----------------------------Solution composition------------------------------

	Elements           Molality       Moles

	C                 1.519e+00   1.519e+00

----------------------------Description of solution----------------------------

                                       pH  =   3.063      Charge balance
                                       pe  =  14.692      Adjusted to redox equilibrium
       Specific Conductance (uS/cm, 25 oC) = 345
                          Density (g/cm3)  =   1.00449
                        Activity of water  =   0.974
                           Ionic strength  =   8.938e-04
                       Mass of water (kg)  =   1.000e+00
                 Total alkalinity (eq/kg)  =   1.491e-08
                       Total CO2 (mol/kg)  =   1.519e+00
                      Temperature (deg C)  =  25.00
                           Pressure (atm)  = 161.10
                  Electrical balance (eq)  =  -1.491e-08
 Percent error, 100*(Cat-|An|)/(Cat+|An|)  =  -0.00
                               Iterations  =  15
                                  Total H  = 1.110124e+02
                                  Total O  = 5.854482e+01

----------------------------Distribution of species----------------------------

                                            Log       Log         Log     mole V
   Species          Molality    Activity  Molality  Activity     Gamma   cm3/mol

   H+              8.937e-04   8.654e-04    -3.049    -3.063    -0.014      0.00
   OH-             1.338e-11   1.293e-11   -10.874   -10.888    -0.015     -3.13
   H2O             5.551e+01   9.742e-01     1.744    -0.011     0.000     17.94
C(-4)         0.000e+00
   CH4             0.000e+00   0.000e+00  -117.569  -117.569     0.000     33.09
C(4)          1.519e+00
   CO2             1.518e+00   1.519e+00     0.181     0.181     0.000     26.00
   HCO3-           8.938e-04   8.645e-04    -3.049    -3.063    -0.014     24.32
   CO3-2           6.430e-11   5.629e-11   -10.192   -10.250    -0.058     -3.72
H(0)          3.836e-39
   H2              1.918e-39   1.918e-39   -38.717   -38.717     0.000     20.00
O(0)          1.664e-15
   O2              8.321e-16   8.323e-16   -15.080   -15.080     0.000     35.00

------------------------------Saturation indices-------------------------------

	Phase               SI   log IAP   log K(298 K, 161 atm)

	CH4(g)         -114.89   -117.57   -2.68  CH4
	CO2(g)            1.59      0.18   -1.41  CO2	 Pressure 161.1 atm, phi 0.328.
	H2(g)           -35.62    -38.72   -3.10  H2
	H2O(g)           -1.46     -0.01    1.45  H2O
	O2(g)           -12.09    -15.08   -2.99  O2


------------------
End of simulation.
------------------

-------------------------------------
Reading input data for simulation 11.
-------------------------------------

		SOLUTION 1
	 temp 25
	pressure   1.8110e+02
	EQUILIBRIUM_PHASES
	 CO2(g)   2.2579e+00
	END
-------------------------------------------
Beginning of initial solution calculations.
-------------------------------------------

Initial solution 1.	

-----------------------------Solution composition------------------------------

	Elements           Molality       Moles

	Pure water     

----------------------------Description of solution----------------------------

                                       pH  =   7.000    
                                       pe  =   4.000    
       Specific Conductance (uS/cm, 25 oC) = 0
                          Density (g/cm3)  =   1.00537
                        Activity of water  =   1.000
                           Ionic strength  =   1.085e-07
                       Mass of water (kg)  =   1.000e+00
                 Total alkalinity (eq/kg)  =   1.689e-08
                    Total carbon (mol/kg)  =   0.000e+00
                       Total CO2 (mol/kg)  =   0.000e+00
                      Temperature (deg C)  =  25.00
                           Pressure (atm)  = 181.10
                  Electrical balance (eq)  =  -1.689e-08
 Percent error, 100*(Cat-|An|)/(Cat+|An|)  =  -7.79
                               Iterations  =   0
                                  Total H  = 1.110124e+02
                                  Total O  = 5.550622e+01

----------------------------Distribution of species----------------------------

                                            Log       Log         Log     mole V
   Species          Molality    Activity  Molality  Activity     Gamma   cm3/mol

   OH-             1.169e-07   1.169e-07    -6.932    -6.932    -0.000     -3.13
   H+              1.001e-07   1.000e-07    -7.000    -7.000    -0.000      0.00
   H2O             5.551e+01   1.000e+00     1.744     0.000     0.000     17.92
H(0)          1.222e-25
   H2              6.110e-26   6.110e-26   -25.214   -25.214     0.000     20.00
O(0)          0.000e+00
   O2              0.000e+00   0.000e+00   -42.077   -42.077     0.000     35.00

------------------------------Saturation indices-------------------------------

	Phase               SI   log IAP   log K(298 K, 181 atm)

	H2(g)           -22.11    -25.21   -3.10  H2
	H2O(g)           -1.45      0.00    1.45  H2O
	O2(g)           -39.07    -42.08   -3.01  O2


-----------------------------------------
Beginning of batch-reaction calculations.
-----------------------------------------

Reaction step 1.

Using solution 1.	
Using pure phase assemblage 1.	

-------------------------------Phase assemblage--------------------------------

                                                      Moles in assemblage
Phase               SI  log IAP  log K(T, P)   Initial       Final       Delta

CO2(g)            1.59     0.19     -1.40    1.000e+01   8.454e+00  -1.546e+00

-----------------------------Solution composition------------------------------

	Elements           Molality       Moles

	C                 1.546e+00   1.546e+00

----------------------------Description of solution----------------------------

                                       pH  =   3.055      Charge balance
                                       pe  =   2.428      Adjusted to redox equilibrium
       Specific Conductance (uS/cm, 25 oC) = 351
                          Density (g/cm3)  =   1.00541
                        Activity of water  =   0.974
                           Ionic strength  =   9.095e-04
                       Mass of water (kg)  =   1.000e+00
                 Total alkalinity (eq/kg)  =   1.689e-08
                       Total CO2 (mol/kg)  =   1.546e+00
                      Temperature (deg C)  =  25.00
                           Pressure (atm)  = 181.10
                  Electrical balance (eq)  =  -1.689e-08
 Percent error, 100*(Cat-|An|)/(Cat+|An|)  =  -0.00
                               Iterations  =  14
                                  Total H  = 1.110124e+02
                                  Total O  = 5.859873e+01

----------------------------Distribution of species----------------------------

                                            Log       Log         Log     mole V
   Species          Molality    Activity  Molality  Activity     Gamma   cm3/mol

   H+              9.095e-04   8.804e-04    -3.041    -3.055    -0.014      0.00
   OH-             1.338e-11   1.293e-11   -10.874   -10.889    -0.015     -3.13
   H2O             5.551e+01   9.737e-01     1.744    -0.012     0.000     17.92
C(-4)         3.983e-20
   CH4             3.983e-20   3.983e-20   -19.400   -19.400     0.000     33.09
C(4)          1.546e+00
   CO2             1.545e+00   1.546e+00     0.189     0.189     0.000     26.18
   HCO3-           9.095e-04   8.795e-04    -3.041    -3.056    -0.015     24.32
   CO3-2           6.587e-11   5.759e-11   -10.181   -10.240    -0.058     -3.72
H(0)          1.320e-14
   H2              6.600e-15   6.602e-15   -14.180   -14.180     0.000     20.00
O(0)          0.000e+00
   O2              0.000e+00   0.000e+00   -64.168   -64.168     0.000     35.00

------------------------------Saturation indices-------------------------------

	Phase               SI   log IAP   log K(298 K, 181 atm)

	CH4(g)          -16.74    -19.40   -2.66  CH4
	CO2(g)            1.59      0.19   -1.40  CO2	 Pressure 181.1 atm, phi 0.304.
	H2(g)           -11.08    -14.18   -3.10  H2
	H2O(g)           -1.46     -0.01    1.45  H2O
	O2(g)           -61.16    -64.17   -3.01  O2


------------------
End of simulation.
------------------

-------------------------------------
Reading input data for simulation 12.
-------------------------------------

		SOLUTION 1
	 temp 25
	pressure   2.0110e+02
	EQUILIBRIUM_PHASES
	 CO2(g)   2.3034e+00
	END
-------------------------------------------
Beginning of initial solution calculations.
-------------------------------------------

Initial solution 1.	

-----------------------------Solution composition------------------------------

	Elements           Molality       Moles

	Pure water     

----------------------------Description of solution----------------------------

                                       pH  =   7.000    
                                       pe  =   4.000    
       Specific Conductance (uS/cm, 25 oC) = 0
                          Density (g/cm3)  =   1.00629
                        Activity of water  =   1.000
                           Ionic strength  =   1.095e-07
                       Mass of water (kg)  =   1.000e+00
                 Total alkalinity (eq/kg)  =   1.891e-08
                    Total carbon (mol/kg)  =   0.000e+00
                       Total CO2 (mol/kg)  =   0.000e+00
                      Temperature (deg C)  =  25.00
                           Pressure (atm)  = 201.10
                  Electrical balance (eq)  =  -1.891e-08
 Percent error, 100*(Cat-|An|)/(Cat+|An|)  =  -8.63
                               Iterations  =   0
                                  Total H  = 1.110124e+02
                                  Total O  = 5.550622e+01

----------------------------Distribution of species----------------------------

                                            Log       Log         Log     mole V
   Species          Molality    Activity  Molality  Activity     Gamma   cm3/mol

   OH-             1.190e-07   1.189e-07    -6.925    -6.925    -0.000     -3.13
   H+              1.001e-07   1.000e-07    -7.000    -7.000    -0.000      0.00
   H2O             5.551e+01   1.000e+00     1.744     0.000     0.000     17.90
H(0)          1.202e-25
   H2              6.011e-26   6.011e-26   -25.221   -25.221     0.000     20.00
O(0)          0.000e+00
   O2              0.000e+00   0.000e+00   -42.077   -42.077     0.000     35.00

------------------------------Saturation indices-------------------------------

	Phase               SI   log IAP   log K(298 K, 201 atm)

	H2(g)           -22.12    -25.22   -3.10  H2
	H2O(g)           -1.44      0.00    1.44  H2O
	O2(g)           -39.06    -42.08   -3.02  O2


-----------------------------------------
Beginning of batch-reaction calculations.
-----------------------------------------

Reaction step 1.

Using solution 1.	
Using pure phase assemblage 1.	

-------------------------------Phase assemblage--------------------------------

                                                      Moles in assemblage
Phase               SI  log IAP  log K(T, P)   Initial       Final       Delta

CO2(g)            1.59     0.20     -1.39    1.000e+01   8.428e+00  -1.572e+00

-----------------------------Solution composition------------------------------

	Elements           Molality       Moles

	C                 1.572e+00   1.572e+00

----------------------------Description of solution----------------------------

                                       pH  =   3.048      Charge balance
                                       pe  =  15.394      Adjusted to redox equilibrium
       Specific Conductance (uS/cm, 25 oC) = 357
                          Density (g/cm3)  =   1.00633
                        Activity of water  =   0.973
                           Ionic strength  =   9.251e-04
                       Mass of water (kg)  =   1.000e+00
                 Total alkalinity (eq/kg)  =   1.891e-08
                       Total CO2 (mol/kg)  =   1.572e+00
                      Temperature (deg C)  =  25.00
                           Pressure (atm)  = 201.10
                  Electrical balance (eq)  =  -1.891e-08
 Percent error, 100*(Cat-|An|)/(Cat+|An|)  =  -0.00
                               Iterations  =  15
                                  Total H  = 1.110124e+02
                                  Total O  = 5.864985e+01

----------------------------Distribution of species----------------------------

                                            Log       Log         Log     mole V
   Species          Molality    Activity  Molality  Activity     Gamma   cm3/mol

   H+              9.251e-04   8.953e-04    -3.034    -3.048    -0.014      0.00
   OH-             1.338e-11   1.293e-11   -10.874   -10.889    -0.015     -3.13
   H2O             5.551e+01   9.733e-01     1.744    -0.012     0.000     17.90
C(-4)         0.000e+00
   CH4             0.000e+00   0.000e+00  -123.076  -123.076     0.000     33.09
C(4)          1.572e+00
   CO2             1.571e+00   1.571e+00     0.196     0.196     0.000     26.36
   HCO3-           9.251e-04   8.943e-04    -3.034    -3.049    -0.015     24.32
   CO3-2           6.747e-11   5.892e-11   -10.171   -10.230    -0.059     -3.72
H(0)          0.000e+00
   H2              0.000e+00   0.000e+00   -40.105   -40.105     0.000     20.00
O(0)          9.285e-13
   O2              4.642e-13   4.643e-13   -12.333   -12.333     0.000     35.00

------------------------------Saturation indices-------------------------------

	Phase               SI   log IAP   log K(298 K, 201 atm)

	CH4(g)         -120.44   -123.08   -2.64  CH4
	CO2(g)            1.59      0.20   -1.39  CO2	 Pressure 201.1 atm, phi 0.285.
	H2(g)           -37.00    -40.10   -3.10  H2
	H2O(g)           -1.45     -0.01    1.44  H2O
	O2(g)            -9.31    -12.33   -3.02  O2


------------------
End of simulation.
------------------

-------------------------------------
Reading input data for simulation 13.
-------------------------------------

		SOLUTION 1
	 temp 25
	pressure   2.2110e+02
	EQUILIBRIUM_PHASES
	 CO2(g)   2.3446e+00
	END
-------------------------------------------
Beginning of initial solution calculations.
-------------------------------------------

Initial solution 1.	

-----------------------------Solution composition------------------------------

	Elements           Molality       Moles

	Pure water     

----------------------------Description of solution----------------------------

                                       pH  =   7.000    
                                       pe  =   4.000    
       Specific Conductance (uS/cm, 25 oC) = 0
                          Density (g/cm3)  =   1.00721
                        Activity of water  =   1.000
                           Ionic strength  =   1.105e-07
                       Mass of water (kg)  =   1.000e+00
                 Total alkalinity (eq/kg)  =   2.095e-08
                    Total carbon (mol/kg)  =   0.000e+00
                       Total CO2 (mol/kg)  =   0.000e+00
                      Temperature (deg C)  =  25.00
                           Pressure (atm)  = 221.10
                  Electrical balance (eq)  =  -2.095e-08
 Percent error, 100*(Cat-|An|)/(Cat+|An|)  =  -9.48
                               Iterations  =   0
                                  Total H  = 1.110124e+02
                                  Total O  = 5.550622e+01

----------------------------Distribution of species----------------------------

                                            Log       Log         Log     mole V
   Species          Molality    Activity  Molality  Activity     Gamma   cm3/mol

   OH-             1.210e-07   1.210e-07    -6.917    -6.917    -0.000     -3.13
   H+              1.001e-07   1.000e-07    -7.000    -7.000    -0.000      0.00
   H2O             5.551e+01   1.000e+00     1.744     0.000     0.000     17.89
H(0)          1.183e-25
   H2              5.914e-26   5.914e-26   -25.228   -25.228     0.000     20.00
O(0)          0.000e+00
   O2              0.000e+00   0.000e+00   -42.077   -42.077     0.000     35.00

------------------------------Saturation indices-------------------------------

	Phase               SI   log IAP   log K(298 K, 221 atm)

	H2(g)           -22.13    -25.23   -3.10  H2
	H2O(g)           -1.43      0.00    1.43  H2O
	O2(g)           -39.04    -42.08   -3.03  O2


-----------------------------------------
Beginning of batch-reaction calculations.
-----------------------------------------

Reaction step 1.

Using solution 1.	
Using pure phase assemblage 1.	

-------------------------------Phase assemblage--------------------------------

                                                      Moles in assemblage
Phase               SI  log IAP  log K(T, P)   Initial       Final       Delta

CO2(g)            1.59     0.20     -1.38    1.000e+01   8.404e+00  -1.596e+00

-----------------------------Solution composition------------------------------

	Elements           Molality       Moles

	C                 1.596e+00   1.596e+00

----------------------------Description of solution----------------------------

                                       pH  =   3.041      Charge balance
                                       pe  =   2.394      Adjusted to redox equilibrium
       Specific Conductance (uS/cm, 25 oC) = 363
                          Density (g/cm3)  =   1.00725
                        Activity of water  =   0.973
                           Ionic strength  =   9.405e-04
                       Mass of water (kg)  =   1.000e+00
                 Total alkalinity (eq/kg)  =   2.095e-08
                       Total CO2 (mol/kg)  =   1.596e+00
                      Temperature (deg C)  =  25.00
                           Pressure (atm)  = 221.10
                  Electrical balance (eq)  =  -2.095e-08
 Percent error, 100*(Cat-|An|)/(Cat+|An|)  =  -0.00
                               Iterations  =  14
                                  Total H  = 1.110124e+02
                                  Total O  = 5.869842e+01

----------------------------Distribution of species----------------------------

                                            Log       Log         Log     mole V
   Species          Molality    Activity  Molality  Activity     Gamma   cm3/mol

   H+              9.405e-04   9.100e-04    -3.027    -3.041    -0.014      0.00
   OH-             1.339e-11   1.293e-11   -10.873   -10.888    -0.015     -3.13
   H2O             5.551e+01   9.728e-01     1.744    -0.012     0.000     17.89
C(-4)         9.313e-20
   CH4             9.313e-20   9.315e-20   -19.031   -19.031     0.000     33.09
C(4)          1.596e+00
   CO2             1.595e+00   1.596e+00     0.203     0.203     0.000     26.54
   HCO3-           9.406e-04   9.090e-04    -3.027    -3.041    -0.015     24.32
   CO3-2           6.910e-11   6.029e-11   -10.161   -10.220    -0.059     -3.72
H(0)          1.593e-14
   H2              7.964e-15   7.966e-15   -14.099   -14.099     0.000     20.00
O(0)          0.000e+00
   O2              0.000e+00   0.000e+00   -64.360   -64.360     0.000     35.00

------------------------------Saturation indices-------------------------------

	Phase               SI   log IAP   log K(298 K, 221 atm)

	CH4(g)          -16.41    -19.03   -2.62  CH4
	CO2(g)            1.59      0.20   -1.38  CO2	 Pressure 221.1 atm, phi 0.269.
	H2(g)           -11.00    -14.10   -3.10  H2
	H2O(g)           -1.44     -0.01    1.43  H2O
	O2(g)           -61.33    -64.36   -3.03  O2


------------------
End of simulation.
------------------

-------------------------------------
Reading input data for simulation 14.
-------------------------------------

		SOLUTION 1
	 temp 25
	pressure   2.4110e+02
	EQUILIBRIUM_PHASES
	 CO2(g)   2.3822e+00
	END
-------------------------------------------
Beginning of initial solution calculations.
-------------------------------------------

Initial solution 1.	

-----------------------------Solution composition------------------------------

	Elements           Molality       Moles

	Pure water     

----------------------------Description of solution----------------------------

                                       pH  =   7.000    
                                       pe  =   4.000    
       Specific Conductance (uS/cm, 25 oC) = 0
                          Density (g/cm3)  =   1.00813
                        Activity of water  =   1.000
                           Ionic strength  =   1.116e-07
                       Mass of water (kg)  =   1.000e+00
                 Total alkalinity (eq/kg)  =   2.303e-08
                    Total carbon (mol/kg)  =   0.000e+00
                       Total CO2 (mol/kg)  =   0.000e+00
                      Temperature (deg C)  =  25.00
                           Pressure (atm)  = 241.10
                  Electrical balance (eq)  =  -2.303e-08
 Percent error, 100*(Cat-|An|)/(Cat+|An|)  = -10.32
                               Iterations  =   0
                                  Total H  = 1.110124e+02
                                  Total O  = 5.550622e+01

----------------------------Distribution of species----------------------------

                                            Log       Log         Log     mole V
   Species          Molality    Activity  Molality  Activity     Gamma   cm3/mol

   OH-             1.231e-07   1.230e-07    -6.910    -6.910    -0.000     -3.13
   H+              1.001e-07   1.000e-07    -7.000    -7.000    -0.000      0.00
   H2O             5.551e+01   1.000e+00     1.744     0.000     0.000     17.87
H(0)          1.164e-25
   H2              5.818e-26   5.818e-26   -25.235   -25.235     0.000     20.00
O(0)          0.000e+00
   O2              0.000e+00   0.000e+00   -42.077   -42.077     0.000     35.00

------------------------------Saturation indices-------------------------------

	Phase               SI   log IAP   log K(298 K, 241 atm)

	H2(g)           -22.13    -25.24   -3.10  H2
	H2O(g)           -1.43      0.00    1.43  H2O
	O2(g)           -39.03    -42.08   -3.04  O2


-----------------------------------------
Beginning of batch-reaction calculations.
-----------------------------------------

Reaction step 1.

Using solution 1.	
Using pure phase assemblage 1.	

-------------------------------Phase assemblage--------------------------------

                                                      Moles in assemblage
Phase               SI  log IAP  log K(T, P)   Initial       Final       Delta

CO2(g)            1.58     0.21     -1.38    1.000e+01   8.381e+00  -1.619e+00

-----------------------------Solution composition------------------------------

	Elements           Molality       Moles

	C                 1.619e+00   1.619e+00

----------------------------Description of solution----------------------------

                                       pH  =   3.034      Charge balance
                                       pe  =   2.558      Adjusted to redox equilibrium
       Specific Conductance (uS/cm, 25 oC) = 369
                          Density (g/cm3)  =   1.00817
                        Activity of water  =   0.972
                           Ionic strength  =   9.559e-04
                       Mass of water (kg)  =   1.000e+00
                 Total alkalinity (eq/kg)  =   2.303e-08
                       Total CO2 (mol/kg)  =   1.619e+00
                      Temperature (deg C)  =  25.00
                           Pressure (atm)  = 241.10
                  Electrical balance (eq)  =  -2.303e-08
 Percent error, 100*(Cat-|An|)/(Cat+|An|)  =  -0.00
                               Iterations  =  15
                                  Total H  = 1.110124e+02
                                  Total O  = 5.874449e+01

----------------------------Distribution of species----------------------------

                                            Log       Log         Log     mole V
   Species          Molality    Activity  Molality  Activity     Gamma   cm3/mol

   H+              9.559e-04   9.247e-04    -3.020    -3.034    -0.014      0.00
   OH-             1.340e-11   1.294e-11   -10.873   -10.888    -0.015     -3.13
   H2O             5.551e+01   9.725e-01     1.744    -0.012     0.000     17.87
C(-4)         5.091e-21
   CH4             5.091e-21   5.092e-21   -20.293   -20.293     0.000     33.09
C(4)          1.619e+00
   CO2             1.618e+00   1.619e+00     0.209     0.209     0.000     26.72
   HCO3-           9.560e-04   9.237e-04    -3.020    -3.034    -0.015     24.32
   CO3-2           7.078e-11   6.169e-11   -10.150   -10.210    -0.060     -3.72
H(0)          7.610e-15
   H2              3.805e-15   3.806e-15   -14.420   -14.420     0.000     20.00
O(0)          0.000e+00
   O2              0.000e+00   0.000e+00   -63.733   -63.732     0.000     35.00

------------------------------Saturation indices-------------------------------

	Phase               SI   log IAP   log K(298 K, 241 atm)

	CH4(g)          -17.69    -20.29   -2.60  CH4
	CO2(g)            1.59      0.21   -1.38  CO2	 Pressure 241.1 atm, phi 0.256.
	H2(g)           -11.32    -14.42   -3.10  H2
	H2O(g)           -1.44     -0.01    1.43  H2O
	O2(g)           -60.69    -63.73   -3.04  O2


------------------
End of simulation.
------------------

-------------------------------------
Reading input data for simulation 15.
-------------------------------------

		SOLUTION 1
	 temp 25
	pressure   2.6110e+02
	EQUILIBRIUM_PHASES
	 CO2(g)   2.4168e+00
	END
-------------------------------------------
Beginning of initial solution calculations.
-------------------------------------------

Initial solution 1.	

-----------------------------Solution composition------------------------------

	Elements           Molality       Moles

	Pure water     

----------------------------Description of solution----------------------------

                                       pH  =   7.000    
                                       pe  =   4.000    
       Specific Conductance (uS/cm, 25 oC) = 0
                          Density (g/cm3)  =   1.00905
                        Activity of water  =   1.000
                           Ionic strength  =   1.126e-07
                       Mass of water (kg)  =   1.000e+00
                 Total alkalinity (eq/kg)  =   2.514e-08
                    Total carbon (mol/kg)  =   0.000e+00
                       Total CO2 (mol/kg)  =   0.000e+00
                      Temperature (deg C)  =  25.00
                           Pressure (atm)  = 261.10
                  Electrical balance (eq)  =  -2.514e-08
 Percent error, 100*(Cat-|An|)/(Cat+|An|)  = -11.16
                               Iterations  =   0
                                  Total H  = 1.110124e+02
                                  Total O  = 5.550622e+01

----------------------------Distribution of species----------------------------

                                            Log       Log         Log     mole V
   Species          Molality    Activity  Molality  Activity     Gamma   cm3/mol

   OH-             1.252e-07   1.251e-07    -6.902    -6.903    -0.000     -3.13
   H+              1.001e-07   1.000e-07    -7.000    -7.000    -0.000      0.00
   H2O             5.551e+01   1.000e+00     1.744     0.000     0.000     17.85
H(0)          1.145e-25
   H2              5.723e-26   5.723e-26   -25.242   -25.242     0.000     20.00
O(0)          0.000e+00
   O2              0.000e+00   0.000e+00   -42.077   -42.077     0.000     35.00

------------------------------Saturation indices-------------------------------

[...]

                                       pH  =   3.017      Charge balance
                                       pe  =   2.273      Adjusted to redox equilibrium
       Specific Conductance (uS/cm, 75 oC) = 906
                          Density (g/cm3)  =   0.99517
                        Activity of water  =   0.974
                           Ionic strength  =   1.001e-03
                       Mass of water (kg)  =   1.000e+00
                 Total alkalinity (eq/kg)  =   2.783e-06
                       Total CO2 (mol/kg)  =   1.516e+00
                      Temperature (deg C)  =  75.00
                           Pressure (atm)  = 441.10
                  Electrical balance (eq)  =  -2.783e-06
 Percent error, 100*(Cat-|An|)/(Cat+|An|)  =  -0.14
                               Iterations  =  14
                                  Total H  = 1.110124e+02
                                  Total O  = 5.853747e+01

----------------------------Distribution of species----------------------------

                                            Log       Log         Log     mole V
   Species          Molality    Activity  Molality  Activity     Gamma   cm3/mol

   H+              9.992e-04   9.624e-04    -3.000    -3.017    -0.016      0.00
   OH-             3.030e-10   2.913e-10    -9.518    -9.536    -0.017     -7.10
   H2O             5.551e+01   9.742e-01     1.744    -0.011     0.000     18.10
C(-4)         6.157e-25
   CH4             6.157e-25   6.159e-25   -24.211   -24.211     0.000     33.26
C(4)          1.516e+00
   CO2             1.515e+00   1.515e+00     0.180     0.180     0.000     25.02
   HCO3-           1.002e-03   9.637e-04    -2.999    -3.016    -0.017     25.15
   CO3-2           1.373e-10   1.175e-10    -9.862    -9.930    -0.068     -3.93
H(0)          1.792e-14
   H2              8.960e-15   8.962e-15   -14.048   -14.048     0.000     20.00
O(0)          0.000e+00
   O2              0.000e+00   0.000e+00   -50.748   -50.748     0.000     35.00

------------------------------Saturation indices-------------------------------

	Phase               SI   log IAP   log K(348 K, 441 atm)

	CH4(g)          -21.55    -24.21   -2.66  CH4
	CO2(g)            1.91      0.18   -1.73  CO2	 Pressure 441.1 atm, phi 0.377.
	H2(g)           -10.91    -14.05   -3.13  H2
	H2O(g)           -0.31     -0.01    0.30  H2O
	O2(g)           -47.41    -50.75   -3.34  O2


------------------
End of simulation.
------------------

-------------------------------------
Reading input data for simulation 81.
-------------------------------------

		SOLUTION 1
	 temp 75
	pressure   4.6110e+02
	EQUILIBRIUM_PHASES
	 CO2(g)   2.6638e+00
	END
-------------------------------------------
Beginning of initial solution calculations.
-------------------------------------------

Initial solution 1.	

-----------------------------Solution composition------------------------------

	Elements           Molality       Moles

	Pure water     

----------------------------Description of solution----------------------------

                                       pH  =   7.000    
                                       pe  =   4.000    
       Specific Conductance (uS/cm, 75 oC) = 1
                          Density (g/cm3)  =   0.99605
                        Activity of water  =   1.000
                           Ionic strength  =   1.517e-06
                       Mass of water (kg)  =   1.000e+00
                 Total alkalinity (eq/kg)  =   2.833e-06
                    Total carbon (mol/kg)  =   0.000e+00
                       Total CO2 (mol/kg)  =   0.000e+00
                      Temperature (deg C)  =  75.00
                           Pressure (atm)  = 461.10
                  Electrical balance (eq)  =  -2.833e-06
 Percent error, 100*(Cat-|An|)/(Cat+|An|)  = -93.40
                               Iterations  =   3
                                  Total H  = 1.110124e+02
                                  Total O  = 5.550622e+01

----------------------------Distribution of species----------------------------

                                            Log       Log         Log     mole V
   Species          Molality    Activity  Molality  Activity     Gamma   cm3/mol

   OH-             2.933e-06   2.929e-06    -5.533    -5.533    -0.001     -7.12
   H+              1.002e-07   1.000e-07    -6.999    -7.000    -0.001      0.00
   H2O             5.551e+01   1.000e+00     1.744    -0.000     0.000     18.09
H(0)          6.699e-26
   H2              3.349e-26   3.349e-26   -25.475   -25.475     0.000     20.00
O(0)          2.620e-28
   O2              1.310e-28   1.310e-28   -27.883   -27.883     0.000     35.00

------------------------------Saturation indices-------------------------------

	Phase               SI   log IAP   log K(348 K, 461 atm)

	H2(g)           -22.34    -25.48   -3.13  H2
	H2O(g)           -0.30     -0.00    0.30  H2O
	O2(g)           -24.53    -27.88   -3.35  O2


-----------------------------------------
Beginning of batch-reaction calculations.
-----------------------------------------

Reaction step 1.

Using solution 1.	
Using pure phase assemblage 1.	

-------------------------------Phase assemblage--------------------------------

                                                      Moles in assemblage
Phase               SI  log IAP  log K(T, P)   Initial       Final       Delta

CO2(g)            1.91     0.19     -1.72    1.000e+01   8.463e+00  -1.537e+00

-----------------------------Solution composition------------------------------

	Elements           Molality       Moles

	C                 1.537e+00   1.537e+00

----------------------------Description of solution----------------------------

                                       pH  =   3.010      Charge balance
                                       pe  =   2.952      Adjusted to redox equilibrium
       Specific Conductance (uS/cm, 75 oC) = 920
                          Density (g/cm3)  =   0.99609
                        Activity of water  =   0.974
                           Ionic strength  =   1.015e-03
                       Mass of water (kg)  =   1.000e+00
                 Total alkalinity (eq/kg)  =   2.833e-06
                       Total CO2 (mol/kg)  =   1.537e+00
                      Temperature (deg C)  =  75.00
                           Pressure (atm)  = 461.10
                  Electrical balance (eq)  =  -2.833e-06
 Percent error, 100*(Cat-|An|)/(Cat+|An|)  =  -0.14
                               Iterations  =  14
                                  Total H  = 1.110124e+02
                                  Total O  = 5.858062e+01

----------------------------Distribution of species----------------------------

                                            Log       Log         Log     mole V
   Species          Molality    Activity  Molality  Activity     Gamma   cm3/mol

   H+              1.014e-03   9.764e-04    -2.994    -3.010    -0.016      0.00
   OH-             3.039e-10   2.920e-10    -9.517    -9.535    -0.017     -7.10
   H2O             5.551e+01   9.738e-01     1.744    -0.012     0.000     18.09
C(-4)         2.516e-30
   CH4             2.516e-30   2.517e-30   -29.599   -29.599     0.000     33.26
C(4)          1.537e+00
   CO2             1.536e+00   1.537e+00     0.186     0.187     0.000     25.20
   HCO3-           1.017e-03   9.778e-04    -2.993    -3.010    -0.017     25.15
   CO3-2           1.402e-10   1.199e-10    -9.853    -9.921    -0.068     -3.93
H(0)          7.970e-16
   H2              3.985e-16   3.986e-16   -15.400   -15.399     0.000     20.00
O(0)          0.000e+00
   O2              0.000e+00   0.000e+00   -48.057   -48.057     0.000     35.00

------------------------------Saturation indices-------------------------------

	Phase               SI   log IAP   log K(348 K, 461 atm)

	CH4(g)          -26.95    -29.60   -2.65  CH4
	CO2(g)            1.91      0.19   -1.72  CO2	 Pressure 461.1 atm, phi 0.374.
	H2(g)           -12.27    -15.40   -3.13  H2
	H2O(g)           -0.31     -0.01    0.30  H2O
	O2(g)           -44.71    -48.06   -3.35  O2


------------------
End of simulation.
------------------

-------------------------------------
Reading input data for simulation 82.
-------------------------------------

		SOLUTION 1
	 temp 75
	pressure   4.8110e+02
	EQUILIBRIUM_PHASES
	 CO2(g)   2.6822e+00
	END
-------------------------------------------
Beginning of initial solution calculations.
-------------------------------------------

Initial solution 1.	

-----------------------------Solution composition------------------------------

	Elements           Molality       Moles

	Pure water     

----------------------------Description of solution----------------------------

                                       pH  =   7.000    
                                       pe  =   4.000    
       Specific Conductance (uS/cm, 75 oC) = 1
                          Density (g/cm3)  =   0.99697
                        Activity of water  =   1.000
                           Ionic strength  =   1.542e-06
                       Mass of water (kg)  =   1.000e+00
                 Total alkalinity (eq/kg)  =   2.885e-06
                    Total carbon (mol/kg)  =   0.000e+00
                       Total CO2 (mol/kg)  =   0.000e+00
                      Temperature (deg C)  =  75.00
                           Pressure (atm)  = 481.10
                  Electrical balance (eq)  =  -2.885e-06
 Percent error, 100*(Cat-|An|)/(Cat+|An|)  = -93.51
                               Iterations  =   3
                                  Total H  = 1.110124e+02
                                  Total O  = 5.550622e+01

----------------------------Distribution of species----------------------------

                                            Log       Log         Log     mole V
   Species          Molality    Activity  Molality  Activity     Gamma   cm3/mol

   OH-             2.985e-06   2.980e-06    -5.525    -5.526    -0.001     -7.12
   H+              1.002e-07   1.000e-07    -6.999    -7.000    -0.001      0.00
   H2O             5.551e+01   1.000e+00     1.744    -0.000     0.000     18.07
H(0)          6.605e-26
   H2              3.303e-26   3.303e-26   -25.481   -25.481     0.000     20.00
O(0)          2.621e-28
   O2              1.311e-28   1.311e-28   -27.883   -27.883     0.000     35.00

------------------------------Saturation indices-------------------------------

	Phase               SI   log IAP   log K(348 K, 481 atm)

	H2(g)           -22.35    -25.48   -3.13  H2
	H2O(g)           -0.29     -0.00    0.29  H2O
	O2(g)           -24.52    -27.88   -3.36  O2


-----------------------------------------
Beginning of batch-reaction calculations.
-----------------------------------------

Reaction step 1.

Using solution 1.	
Using pure phase assemblage 1.	

-------------------------------Phase assemblage--------------------------------

                                                      Moles in assemblage
Phase               SI  log IAP  log K(T, P)   Initial       Final       Delta

CO2(g)            1.91     0.19     -1.71    1.000e+01   8.442e+00  -1.558e+00

-----------------------------Solution composition------------------------------

	Elements           Molality       Moles

	C                 1.558e+00   1.558e+00

----------------------------Description of solution----------------------------

                                       pH  =   3.004      Charge balance
                                       pe  =  11.332      Adjusted to redox equilibrium
       Specific Conductance (uS/cm, 75 oC) = 933
                          Density (g/cm3)  =   0.99701
                        Activity of water  =   0.974
                           Ionic strength  =   1.030e-03
                       Mass of water (kg)  =   1.000e+00
                 Total alkalinity (eq/kg)  =   2.885e-06
                       Total CO2 (mol/kg)  =   1.558e+00
                      Temperature (deg C)  =  75.00
                           Pressure (atm)  = 481.10
                  Electrical balance (eq)  =  -2.885e-06
 Percent error, 100*(Cat-|An|)/(Cat+|An|)  =  -0.14
                               Iterations  =  12
                                  Total H  = 1.110124e+02
                                  Total O  = 5.862162e+01

----------------------------Distribution of species----------------------------

                                            Log       Log         Log     mole V
   Species          Molality    Activity  Molality  Activity     Gamma   cm3/mol

   H+              1.029e-03   9.904e-04    -2.988    -3.004    -0.017      0.00
   OH-             3.048e-10   2.928e-10    -9.516    -9.533    -0.017     -7.10
   H2O             5.551e+01   9.735e-01     1.744    -0.012     0.000     18.07
C(-4)         0.000e+00
   CH4             0.000e+00   0.000e+00   -96.599   -96.599     0.000     33.26
C(4)          1.558e+00
   CO2             1.557e+00   1.557e+00     0.192     0.192     0.000     25.38
   HCO3-           1.032e-03   9.917e-04    -2.986    -3.004    -0.017     25.15
   CO3-2           1.433e-10   1.223e-10    -9.844    -9.912    -0.069     -3.93
H(0)          1.402e-32
   H2              7.011e-33   7.013e-33   -32.154   -32.154     0.000     20.00
O(0)          5.509e-15
   O2              2.754e-15   2.755e-15   -14.560   -14.560     0.000     35.00

------------------------------Saturation indices-------------------------------

	Phase               SI   log IAP   log K(348 K, 481 atm)

	CH4(g)          -93.97    -96.60   -2.63  CH4
	CO2(g)            1.91      0.19   -1.71  CO2	 Pressure 481.1 atm, phi 0.371.
	H2(g)           -29.02    -32.15   -3.13  H2
	H2O(g)           -0.30     -0.01    0.29  H2O
	O2(g)           -11.20    -14.56   -3.36  O2


------------------
End of simulation.
------------------

-------------------------------------
Reading input data for simulation 83.
-------------------------------------

		SOLUTION 1
	 temp 75
	pressure   5.0110e+02
	EQUILIBRIUM_PHASES
	 CO2(g)   2.6999e+00
	END
-------------------------------------------
Beginning of initial solution calculations.
-------------------------------------------

Initial solution 1.	

-----------------------------Solution composition------------------------------

	Elements           Molality       Moles

	Pure water     

----------------------------Description of solution----------------------------

                                       pH  =   7.000    
                                       pe  =   4.000    
       Specific Conductance (uS/cm, 75 oC) = 1
                          Density (g/cm3)  =   0.99789
                        Activity of water  =   1.000
                           Ionic strength  =   1.569e-06
                       Mass of water (kg)  =   1.000e+00
                 Total alkalinity (eq/kg)  =   2.937e-06
                    Total carbon (mol/kg)  =   0.000e+00
                       Total CO2 (mol/kg)  =   0.000e+00
                      Temperature (deg C)  =  75.00
                           Pressure (atm)  = 501.10
                  Electrical balance (eq)  =  -2.937e-06
 Percent error, 100*(Cat-|An|)/(Cat+|An|)  = -93.61
                               Iterations  =   3
                                  Total H  = 1.110124e+02
                                  Total O  = 5.550622e+01

----------------------------Distribution of species----------------------------

                                            Log       Log         Log     mole V
   Species          Molality    Activity  Molality  Activity     Gamma   cm3/mol

   OH-             3.037e-06   3.032e-06    -5.518    -5.518    -0.001     -7.12
   H+              1.002e-07   1.000e-07    -6.999    -7.000    -0.001      0.00
   H2O             5.551e+01   1.000e+00     1.744    -0.000     0.000     18.05
H(0)          6.514e-26
   H2              3.257e-26   3.257e-26   -25.487   -25.487     0.000     20.00
O(0)          2.622e-28
   O2              1.311e-28   1.311e-28   -27.882   -27.882     0.000     35.00

------------------------------Saturation indices-------------------------------

	Phase               SI   log IAP   log K(348 K, 501 atm)

	H2(g)           -22.35    -25.49   -3.13  H2
	H2O(g)           -0.29     -0.00    0.29  H2O
	O2(g)           -24.51    -27.88   -3.37  O2


-----------------------------------------
Beginning of batch-reaction calculations.
-----------------------------------------

Reaction step 1.

Using solution 1.	
Using pure phase assemblage 1.	

-------------------------------Phase assemblage--------------------------------

                                                      Moles in assemblage
Phase               SI  log IAP  log K(T, P)   Initial       Final       Delta

CO2(g)            1.90     0.20     -1.71    1.000e+01   8.422e+00  -1.578e+00

-----------------------------Solution composition------------------------------

	Elements           Molality       Moles

	C                 1.578e+00   1.578e+00

----------------------------Description of solution----------------------------

                                       pH  =   2.998      Charge balance
                                       pe  =   2.385      Adjusted to redox equilibrium
       Specific Conductance (uS/cm, 75 oC) = 946
                          Density (g/cm3)  =   0.99793
                        Activity of water  =   0.973
                           Ionic strength  =   1.045e-03
                       Mass of water (kg)  =   1.000e+00
                 Total alkalinity (eq/kg)  =   2.937e-06
                       Total CO2 (mol/kg)  =   1.578e+00
                      Temperature (deg C)  =  75.00
                           Pressure (atm)  = 501.10
                  Electrical balance (eq)  =  -2.937e-06
 Percent error, 100*(Cat-|An|)/(Cat+|An|)  =  -0.14
                               Iterations  =  14
                                  Total H  = 1.110124e+02
                                  Total O  = 5.866125e+01

----------------------------Distribution of species----------------------------

                                            Log       Log         Log     mole V
   Species          Molality    Activity  Molality  Activity     Gamma   cm3/mol

   H+              1.044e-03   1.004e-03    -2.982    -2.998    -0.017      0.00
   OH-             3.058e-10   2.937e-10    -9.515    -9.532    -0.018     -7.10
   H2O             5.551e+01   9.732e-01     1.744    -0.012     0.000     18.05
C(-4)         1.054e-25
   CH4             1.054e-25   1.054e-25   -24.977   -24.977     0.000     33.26
C(4)          1.578e+00
   CO2             1.576e+00   1.577e+00     0.198     0.198     0.000     25.56
   HCO3-           1.046e-03   1.006e-03    -2.980    -2.998    -0.017     25.15
   CO3-2           1.464e-10   1.249e-10    -9.835    -9.904    -0.069     -3.93
H(0)          1.116e-14
   H2              5.581e-15   5.582e-15   -14.253   -14.253     0.000     20.00
O(0)          0.000e+00
   O2              0.000e+00   0.000e+00   -50.374   -50.374     0.000     35.00

------------------------------Saturation indices-------------------------------

	Phase               SI   log IAP   log K(348 K, 501 atm)

	CH4(g)          -22.36    -24.98   -2.61  CH4
	CO2(g)            1.90      0.20   -1.71  CO2	 Pressure 501.1 atm, phi 0.368.
	H2(g)           -11.12    -14.25   -3.13  H2
	H2O(g)           -0.30     -0.01    0.29  H2O
	O2(g)           -47.00    -50.37   -3.37  O2


------------------
End of simulation.
------------------

-------------------------------------
Reading input data for simulation 84.
-------------------------------------

	END
------------------
End of simulation.
------------------

-------------------------------------
Reading input data for simulation 85.
-------------------------------------

-----------
End of run.
-----------

