WARNING: Database file from DATABASE keyword is used; command line argument ignored.
   Input file: co2_tc
  Output file: co2_tc.out
Database file: ../database/phreeqc.dat

------------------
Reading data base.
------------------

	SOLUTION_MASTER_SPECIES
	SOLUTION_SPECIES
	PHASES
	EXCHANGE_MASTER_SPECIES
	EXCHANGE_SPECIES
	SURFACE_MASTER_SPECIES
	SURFACE_SPECIES
	RATES
	END
------------------------------------
Reading input data for simulation 1.
------------------------------------

	DATABASE ../database/phreeqc.dat
	SOLUTION_SPECIES
	CO3-2 + 2 H+ = CO2 + H2O
		log_k	16.681
		delta_h -5.738	kcal
		analytical_expression	464.1965	0.09344813	-26986.16	-165.75951	2248628.9
		dw	 1.92e-9
		vm   12.84 -24.3 11.1 1.52 # supcrit modified
	SOLUTION 1
	 pH 7 charge
	 temp 25
	EQUILIBRIUM_PHASES
	 CO2(g) 1.99
	GAS_PHASE 1
	     fixed_volume
	     CO2(g) 0
	 H2O(g) 0
	REACTION_TEMPERATURE
	 25 200 in 10
	USER_GRAPH
	 -plot_csv_file CO2_tc.dat
	 -axis_titles "Temp / oC" "CO2 solubility at 100 bar / (mol/kgw)"
	 -connect_simulations false
	 10 graph_x tc
	 20 graph_y tot("C")
	END
-------------------------------------------
Beginning of initial solution calculations.
-------------------------------------------

Initial solution 1.	

-----------------------------Solution composition------------------------------

	Elements           Molality       Moles

	Pure water     

----------------------------Description of solution----------------------------

                                       pH  =   6.997      Charge balance
                                       pe  =   4.000    
       Specific Conductance (uS/cm, 25 oC) = 0
                          Density (g/cm3)  =   0.99704
                               Volume (L)  =   1.00297
                        Activity of water  =   1.000
                           Ionic strength  =   1.006e-07
                       Mass of water (kg)  =   1.000e+00
                 Total alkalinity (eq/kg)  =   3.040e-17
                    Total carbon (mol/kg)  =   0.000e+00
                       Total CO2 (mol/kg)  =   0.000e+00
                      Temperature (deg C)  =  25.00
                  Electrical balance (eq)  =  -3.040e-17
 Percent error, 100*(Cat-|An|)/(Cat+|An|)  =  -0.00
                               Iterations  =   2
                                  Total H  = 1.110124e+02
                                  Total O  = 5.550622e+01

----------------------------Distribution of species----------------------------

                                               Log       Log       Log    mole V
   Species          Molality    Activity  Molality  Activity     Gamma   cm3/mol

   OH-             1.006e-07   1.006e-07    -6.997    -6.997    -0.000     -4.14
   H+              1.006e-07   1.006e-07    -6.997    -6.997    -0.000      0.00
   H2O             5.551e+01   1.000e+00     1.744    -0.000     0.000     18.07
H(0)          1.433e-25
   H2              7.166e-26   7.166e-26   -25.145   -25.145     0.000     28.61
O(0)          0.000e+00
   O2              0.000e+00   0.000e+00   -42.090   -42.090     0.000     30.40

------------------------------Saturation indices-------------------------------

	Phase               SI   log IAP   log K(298 K,   1 atm)

	H2(g)           -22.04    -25.14   -3.10  H2
	H2O(g)           -1.50     -0.00    1.50  H2O
	O2(g)           -39.20    -42.09   -2.89  O2


-----------------------------------------
Beginning of batch-reaction calculations.
-----------------------------------------

Reaction step 1.

Using solution 1.	
Using pure phase assemblage 1.	
Using gas phase 1.	
Using temperature 1.	

-----------------------------------Gas phase-----------------------------------

Total pressure: 65.13      atmospheres          (Peng-Robinson calculation)
    Gas volume:   1.00e+00 liters
  Molar volume:   1.16e-01 liters/mole
   P * Vm / RT:  0.30853  (Compressibility Factor Z) 

                                                        Moles in gas
                                            ----------------------------------
Component         log P           P    phi     Initial       Final       Delta

CO2(g)             1.81   6.503e+01  0.657   0.000e+00   8.615e+00   8.615e+00
H2O(g)            -0.98   1.051e-01  0.306   0.000e+00   1.392e-02   1.392e-02

-------------------------------Phase assemblage--------------------------------

                                                      Moles in assemblage
Phase               SI  log IAP  log K(T, P)   Initial       Final       Delta

CO2(g)            1.63     0.14     -1.49    1.000e+01           0  -1.000e+01

-----------------------------Solution composition------------------------------

	Elements           Molality       Moles

	C                 1.386e+00   1.385e+00

----------------------------Description of solution----------------------------

                                       pH  =   3.099      Charge balance
                                       pe  =   2.165      Adjusted to redox equilibrium
       Specific Conductance (uS/cm, 25 oC) = 317
                          Density (g/cm3)  =   1.02457
                               Volume (L)  =   1.10155
                        Activity of water  =   0.976
                           Ionic strength  =   8.205e-04
                       Mass of water (kg)  =   9.997e-01
                 Total alkalinity (eq/kg)  =  -3.462e-16
                       Total CO2 (mol/kg)  =   1.386e+00
                      Temperature (deg C)  =  25.00
                           Pressure (atm)  = 65.13
                  Electrical balance (eq)  =   3.461e-16
 Percent error, 100*(Cat-|An|)/(Cat+|An|)  =   0.00
                               Iterations  =  88
                                  Total H  = 1.109846e+02
                                  Total O  = 5.826307e+01

----------------------------Distribution of species----------------------------

                                               Log       Log       Log    mole V
   Species          Molality    Activity  Molality  Activity     Gamma   cm3/mol

   H+              8.205e-04   7.955e-04    -3.086    -3.099    -0.013      0.00
   OH-             1.359e-11   1.316e-11   -10.867   -10.881    -0.014     -3.87
   H2O             5.551e+01   9.764e-01     1.744    -0.010     0.000     18.02
C(-4)         2.440e-18
   CH4             2.440e-18   2.440e-18   -17.613   -17.613     0.000     32.22
C(4)          1.386e+00
   CO2             1.385e+00   1.385e+00     0.141     0.142     0.000     25.61
   HCO3-           8.205e-04   7.947e-04    -3.086    -3.100    -0.014     24.65
   CO3-2           5.736e-11   5.049e-11   -10.241   -10.297    -0.055     -3.86
H(0)          3.884e-14
   H2              1.942e-14   1.942e-14   -13.712   -13.712     0.000     28.58
O(0)          0.000e+00
   O2              0.000e+00   0.000e+00   -65.036   -65.036     0.000     30.31

------------------------------Saturation indices-------------------------------

	Phase               SI   log IAP   log K(298 K,  65 atm)

	CH4(g)          -14.73    -17.61   -2.88  CH4
	CO2(g)            1.63      0.14   -1.49  CO2	 Pressure  65.0 atm, phi 0.657.
	H2(g)           -10.58    -13.71   -3.13  H2
	H2O(g)           -1.49     -0.01    1.48  H2O	 Pressure   0.1 atm, phi 0.306.
	O2(g)           -62.11    -65.04   -2.93  O2


Reaction step 2.

Using solution 1.	
Using pure phase assemblage 1.	
Using gas phase 1.	
Using temperature 1.	

-----------------------------------Gas phase-----------------------------------

Total pressure: 91.63      atmospheres          (Peng-Robinson calculation)
    Gas volume:   1.00e+00 liters
  Molar volume:   1.13e-01 liters/mole
   P * Vm / RT:  0.39649  (Compressibility Factor Z) 

                                                        Moles in gas
                                            ----------------------------------
Component         log P           P    phi     Initial       Final       Delta

CO2(g)             1.96   9.131e+01  0.619   0.000e+00   8.836e+00   8.836e+00
H2O(g)            -0.49   3.230e-01  0.297   0.000e+00   3.126e-02   3.126e-02

-------------------------------Phase assemblage--------------------------------

                                                      Moles in assemblage
Phase               SI  log IAP  log K(T, P)   Initial       Final       Delta

CO2(g)            1.75     0.07     -1.69    1.000e+01           0  -1.000e+01

-----------------------------Solution composition------------------------------

	Elements           Molality       Moles

	C                 1.165e+00   1.164e+00

----------------------------Description of solution----------------------------

                                       pH  =   3.104      Charge balance
                                       pe  =   2.100      Adjusted to redox equilibrium
       Specific Conductance (uS/cm, 44 oC) = 464
                          Density (g/cm3)  =   1.01732
                               Volume (L)  =   1.08885
                        Activity of water  =   0.980
                           Ionic strength  =   8.127e-04
                       Mass of water (kg)  =   9.994e-01
                 Total alkalinity (eq/kg)  =   3.199e-14
                       Total CO2 (mol/kg)  =   1.165e+00
                      Temperature (deg C)  =  44.44
                           Pressure (atm)  = 91.63
                  Electrical balance (eq)  =  -3.198e-14
 Percent error, 100*(Cat-|An|)/(Cat+|An|)  =  -0.00
                               Iterations  =  79
                                  Total H  = 1.109499e+02
                                  Total O  = 5.780288e+01

----------------------------Distribution of species----------------------------

                                               Log       Log       Log    mole V
   Species          Molality    Activity  Molality  Activity     Gamma   cm3/mol

   H+              8.127e-04   7.872e-04    -3.090    -3.104    -0.014      0.00
   OH-             5.413e-11   5.235e-11   -10.267   -10.281    -0.015     -3.81
   H2O             5.551e+01   9.802e-01     1.744    -0.009     0.000     18.12
C(-4)         1.679e-20
   CH4             1.679e-20   1.679e-20   -19.775   -19.775     0.000     32.22
C(4)          1.165e+00
   CO2             1.164e+00   1.164e+00     0.066     0.066     0.000     23.79
   HCO3-           8.127e-04   7.864e-04    -3.090    -3.104    -0.014     25.66
   CO3-2           7.960e-11   6.980e-11   -10.099   -10.156    -0.057     -2.67
H(0)          4.173e-14
   H2              2.086e-14   2.087e-14   -13.681   -13.681     0.000     28.55
O(0)          0.000e+00
   O2              0.000e+00   0.000e+00   -59.224   -59.224     0.000     31.45

------------------------------Saturation indices-------------------------------

	Phase               SI   log IAP   log K(317 K,  92 atm)

	CH4(g)          -16.76    -19.77   -3.01  CH4
	CO2(g)            1.75      0.07   -1.69  CO2	 Pressure  91.3 atm, phi 0.619.
	H2(g)           -10.51    -13.68   -3.18  H2
	H2O(g)           -1.02     -0.01    1.01  H2O	 Pressure   0.3 atm, phi 0.297.
	O2(g)           -56.17    -59.22   -3.05  O2


Reaction step 3.

WARNING: Numerical method failed, switching to numerical derivatives.
WARNING: Maximum iterations exceeded, 100

WARNING: Numerical method failed with this set of convergence parameters.

WARNING: Trying smaller step size, pe step size 10, 5 ... 

Using solution 1.	
Using pure phase assemblage 1.	
Using gas phase 1.	
Using temperature 1.	

-----------------------------------Gas phase-----------------------------------

Total pressure: 98.76      atmospheres          (Peng-Robinson calculation)
    Gas volume:   1.00e+00 liters
  Molar volume:   1.59e-01 liters/mole
   P * Vm / RT:  0.56766  (Compressibility Factor Z) 

                                                        Moles in gas
                                            ----------------------------------
Component         log P           P    phi     Initial       Final       Delta

CO2(g)             1.99   9.816e+01  0.671   0.000e+00   6.252e+00   6.252e+00
H2O(g)            -0.22   6.034e-01  0.406   0.000e+00   3.844e-02   3.844e-02

-------------------------------Phase assemblage--------------------------------

                                                      Moles in assemblage
Phase               SI  log IAP  log K(T, P)   Initial       Final       Delta

CO2(g)            1.82    -0.01     -1.83    1.000e+01   2.765e+00  -7.235e+00

-----------------------------Solution composition------------------------------

	Elements           Molality       Moles

	C                 9.837e-01   9.830e-01

----------------------------Description of solution----------------------------

                                       pH  =   3.144      Charge balance
                                       pe  =   0.636      Adjusted to redox equilibrium
       Specific Conductance (uS/cm, 63 oC) = 579
                          Density (g/cm3)  =   1.00616
                               Volume (L)  =   1.08407
                        Activity of water  =   0.983
                           Ionic strength  =   7.415e-04
                       Mass of water (kg)  =   9.993e-01
                 Total alkalinity (eq/kg)  =  -1.418e-14
                       Total CO2 (mol/kg)  =   9.837e-01
                      Temperature (deg C)  =  63.89
                           Pressure (atm)  = 98.76
                  Electrical balance (eq)  =   1.417e-14
 Percent error, 100*(Cat-|An|)/(Cat+|An|)  =   0.00
                               Iterations  =  72
                                  Total H  = 1.109356e+02
                                  Total O  = 5.743381e+01

----------------------------Distribution of species----------------------------

                                               Log       Log       Log    mole V
   Species          Molality    Activity  Molality  Activity     Gamma   cm3/mol

   H+              7.415e-04   7.184e-04    -3.130    -3.144    -0.014      0.00
   OH-             1.819e-10   1.759e-10    -9.740    -9.755    -0.014     -4.31
   H2O             5.551e+01   9.833e-01     1.744    -0.007     0.000     18.28
C(-4)         1.506e-11
   CH4             1.506e-11   1.507e-11   -10.822   -10.822     0.000     32.22
C(4)          9.837e-01
   CO2             9.830e-01   9.831e-01    -0.007    -0.007     0.000     22.49
   HCO3-           7.415e-04   7.177e-04    -3.130    -3.144    -0.014     25.89
   CO3-2           9.229e-11   8.097e-11   -10.035   -10.092    -0.057     -3.26
H(0)          2.510e-11
   H2              1.255e-11   1.255e-11   -10.901   -10.901     0.000     28.53
O(0)          0.000e+00
   O2              0.000e+00   0.000e+00   -59.571   -59.571     0.000     32.30

------------------------------Saturation indices-------------------------------

	Phase               SI   log IAP   log K(337 K,  99 atm)

	CH4(g)           -7.74    -10.82   -3.08  CH4
	CO2(g)            1.82     -0.01   -1.83  CO2	 Pressure  98.2 atm, phi 0.671.
	H2(g)            -7.72    -10.90   -3.18  H2
	H2O(g)           -0.61     -0.01    0.60  H2O	 Pressure   0.6 atm, phi 0.406.
	O2(g)           -56.45    -59.57   -3.12  O2


Reaction step 4.

Using solution 1.	
Using pure phase assemblage 1.	
Using gas phase 1.	
Using temperature 1.	

-----------------------------------Gas phase-----------------------------------

Total pressure: 99.36      atmospheres          (Peng-Robinson calculation)
    Gas volume:   1.00e+00 liters
  Molar volume:   1.98e-01 liters/mole
   P * Vm / RT:  0.67292  (Compressibility Factor Z) 

                                                        Moles in gas
                                            ----------------------------------
Component         log P           P    phi     Initial       Final       Delta

CO2(g)             1.99   9.823e+01  0.727   0.000e+00   4.990e+00   4.990e+00
H2O(g)             0.05   1.128e+00  0.493   0.000e+00   5.728e-02   5.728e-02

-------------------------------Phase assemblage--------------------------------

                                                      Moles in assemblage
Phase               SI  log IAP  log K(T, P)   Initial       Final       Delta

CO2(g)            1.85    -0.07     -1.93    1.000e+01   4.164e+00  -5.836e+00

-----------------------------Solution composition------------------------------

	Elements           Molality       Moles

	C                 8.467e-01   8.459e-01

----------------------------Description of solution----------------------------

                                       pH  =   3.204      Charge balance
                                       pe  =  -0.111      Adjusted to redox equilibrium
       Specific Conductance (uS/cm, 83 oC) = 652
                          Density (g/cm3)  =   0.99283
                               Volume (L)  =   1.08543
                        Activity of water  =   0.986
                           Ionic strength  =   6.451e-04
                       Mass of water (kg)  =   9.990e-01
                 Total alkalinity (eq/kg)  =   3.183e-17
                       Total CO2 (mol/kg)  =   8.467e-01
                      Temperature (deg C)  =  83.33
                           Pressure (atm)  = 99.36
                  Electrical balance (eq)  =  -3.180e-17
 Percent error, 100*(Cat-|An|)/(Cat+|An|)  =  -0.00
                               Iterations  =  39
                                  Total H  = 1.108979e+02
                                  Total O  = 5.714065e+01

----------------------------Distribution of species----------------------------

                                               Log       Log       Log    mole V
   Species          Molality    Activity  Molality  Activity     Gamma   cm3/mol

   H+              6.451e-04   6.254e-04    -3.190    -3.204    -0.013      0.00
   OH-             5.259e-10   5.091e-10    -9.279    -9.293    -0.014     -5.22
   H2O             5.551e+01   9.856e-01     1.744    -0.006     0.000     18.49
C(-4)         2.510e-08
   CH4             2.510e-08   2.511e-08    -7.600    -7.600     0.000     32.22
C(4)          8.467e-01
   CO2             8.461e-01   8.462e-01    -0.073    -0.073     0.000     21.52
   HCO3-           6.451e-04   6.248e-04    -3.190    -3.204    -0.014     25.55
   CO3-2           9.389e-11   8.261e-11   -10.027   -10.083    -0.056     -5.21
H(0)          5.160e-10
   H2              2.580e-10   2.581e-10    -9.588    -9.588     0.000     28.53
O(0)          0.000e+00
   O2              0.000e+00   0.000e+00   -57.549   -57.548     0.000     33.01

------------------------------Saturation indices-------------------------------

	Phase               SI   log IAP   log K(356 K,  99 atm)

	CH4(g)           -4.49     -7.60   -3.11  CH4
	CO2(g)            1.85     -0.07   -1.93  CO2	 Pressure  98.2 atm, phi 0.727.
	H2(g)            -6.42     -9.59   -3.17  H2
	H2O(g)           -0.26     -0.01    0.25  H2O	 Pressure   1.1 atm, phi 0.493.
	O2(g)           -54.39    -57.55   -3.16  O2


Reaction step 5.

Using solution 1.	
Using pure phase assemblage 1.	
Using gas phase 1.	
Using temperature 1.	

-----------------------------------Gas phase-----------------------------------

Total pressure: 100.44      atmospheres          (Peng-Robinson calculation)
    Gas volume:   1.00e+00 liters
  Molar volume:   2.27e-01 liters/mole
   P * Vm / RT:  0.73852  (Compressibility Factor Z) 

                                                        Moles in gas
                                            ----------------------------------
Component         log P           P    phi     Initial       Final       Delta

CO2(g)             1.99   9.837e+01  0.771   0.000e+00   4.318e+00   4.318e+00
H2O(g)             0.31   2.065e+00  0.554   0.000e+00   9.063e-02   9.063e-02

-------------------------------Phase assemblage--------------------------------

                                                      Moles in assemblage
Phase               SI  log IAP  log K(T, P)   Initial       Final       Delta

CO2(g)            1.88    -0.12     -2.00    1.000e+01   4.921e+00  -5.079e+00

-----------------------------Solution composition------------------------------

	Elements           Molality       Moles

	C                 7.625e-01   7.613e-01

----------------------------Description of solution----------------------------

                                       pH  =   3.272      Charge balance
                                       pe  =  10.022      Adjusted to redox equilibrium
       Specific Conductance (uS/cm, 102 oC) = 691
                          Density (g/cm3)  =   0.97365
                               Volume (L)  =   1.09811
                        Activity of water  =   0.987
                           Ionic strength  =   5.510e-04
                       Mass of water (kg)  =   9.984e-01
                 Total alkalinity (eq/kg)  =  -2.217e-14
                       Total CO2 (mol/kg)  =   7.625e-01
                      Temperature (deg C)  = 102.78
                           Pressure (atm)  = 100.44
                  Electrical balance (eq)  =   2.214e-14
 Percent error, 100*(Cat-|An|)/(Cat+|An|)  =   0.00
                               Iterations  =  47
                                  Total H  = 1.108312e+02
                                  Total O  = 5.693811e+01

----------------------------Distribution of species----------------------------

                                               Log       Log       Log    mole V
   Species          Molality    Activity  Molality  Activity     Gamma   cm3/mol

   H+              5.510e-04   5.346e-04    -3.259    -3.272    -0.013      0.00
   OH-             1.320e-09   1.279e-09    -8.879    -8.893    -0.014     -6.57
   H2O             5.551e+01   9.870e-01     1.744    -0.006     0.000     18.84
C(-4)         0.000e+00
   CH4             0.000e+00   0.000e+00   -91.316   -91.316     0.000     32.22
C(4)          7.625e-01
   CO2             7.620e-01   7.621e-01    -0.118    -0.118     0.000     20.82
   HCO3-           5.510e-04   5.342e-04    -3.259    -3.272    -0.013     24.71
   CO3-2           8.656e-11   7.646e-11   -10.063   -10.117    -0.054     -8.45
H(0)          1.806e-30
   H2              9.029e-31   9.030e-31   -30.044   -30.044     0.000     28.52
O(0)          6.785e-13
   O2              3.393e-13   3.393e-13   -12.469   -12.469     0.000     33.67

------------------------------Saturation indices-------------------------------

	Phase               SI   log IAP   log K(375 K, 100 atm)

	CH4(g)          -88.21    -91.32   -3.11  CH4
	CO2(g)            1.88     -0.12   -2.00  CO2	 Pressure  98.4 atm, phi 0.771.
	H2(g)           -26.91    -30.04   -3.14  H2
	H2O(g)            0.06     -0.01   -0.06  H2O	 Pressure   2.1 atm, phi 0.554.
	O2(g)            -9.31    -12.47   -3.16  O2


Reaction step 6.

Using solution 1.	
Using pure phase assemblage 1.	
Using gas phase 1.	
Using temperature 1.	

-----------------------------------Gas phase-----------------------------------

Total pressure: 102.17      atmospheres          (Peng-Robinson calculation)
    Gas volume:   1.00e+00 liters
  Molar volume:   2.49e-01 liters/mole
   P * Vm / RT:  0.78329  (Compressibility Factor Z) 

                                                        Moles in gas
                                            ----------------------------------
Component         log P           P    phi     Initial       Final       Delta

CO2(g)             1.99   9.855e+01  0.806   0.000e+00   3.878e+00   3.878e+00
H2O(g)             0.56   3.617e+00  0.599   0.000e+00   1.423e-01   1.423e-01

-------------------------------Phase assemblage--------------------------------

                                                      Moles in assemblage
Phase               SI  log IAP  log K(T, P)   Initial       Final       Delta

CO2(g)            1.90    -0.15     -2.05    1.000e+01   5.409e+00  -4.591e+00

-----------------------------Solution composition------------------------------

	Elements           Molality       Moles

	C                 7.145e-01   7.127e-01

----------------------------Description of solution----------------------------

                                       pH  =   3.345      Charge balance
                                       pe  =   1.955      Adjusted to redox equilibrium
       Specific Conductance (uS/cm, 122 oC) = 704
                          Density (g/cm3)  =   0.95784
                               Volume (L)  =   1.11055
                        Activity of water  =   0.988
                           Ionic strength  =   4.652e-04
                       Mass of water (kg)  =   9.974e-01
                 Total alkalinity (eq/kg)  =  -2.273e-13
                       Total CO2 (mol/kg)  =   7.145e-01
                      Temperature (deg C)  = 122.22
                           Pressure (atm)  = 102.17
                  Electrical balance (eq)  =   2.267e-13
 Percent error, 100*(Cat-|An|)/(Cat+|An|)  =   0.00
                               Iterations  =  31
                                  Total H  = 1.107278e+02
                                  Total O  = 5.678924e+01

----------------------------Distribution of species----------------------------

                                               Log       Log       Log    mole V
   Species          Molality    Activity  Molality  Activity     Gamma   cm3/mol

   H+              4.652e-04   4.518e-04    -3.332    -3.345    -0.013      0.00
   OH-             2.924e-09   2.836e-09    -8.534    -8.547    -0.013     -8.42
   H2O             5.551e+01   9.878e-01     1.744    -0.005     0.000     19.14
C(-4)         4.702e-30
   CH4             4.702e-30   4.702e-30   -29.328   -29.328     0.000     32.22
C(4)          7.145e-01
   CO2             7.140e-01   7.141e-01    -0.146    -0.146     0.000     20.30
   HCO3-           4.652e-04   4.514e-04    -3.332    -3.345    -0.013     23.36
   CO3-2           7.370e-11   6.535e-11   -10.133   -10.185    -0.052    -13.14
H(0)          1.569e-14
   H2              7.845e-15   7.846e-15   -14.105   -14.105     0.000     28.52
O(0)          0.000e+00
   O2              0.000e+00   0.000e+00   -40.591   -40.591     0.000     34.35

------------------------------Saturation indices-------------------------------

	Phase               SI   log IAP   log K(395 K, 102 atm)

	CH4(g)          -26.25    -29.33   -3.08  CH4
	CO2(g)            1.90     -0.15   -2.05  CO2	 Pressure  98.5 atm, phi 0.806.
	H2(g)           -11.01    -14.11   -3.09  H2
	H2O(g)            0.34     -0.01   -0.34  H2O	 Pressure   3.6 atm, phi 0.599.
	O2(g)           -37.45    -40.59   -3.14  O2


Reaction step 7.

Using solution 1.	
Using pure phase assemblage 1.	
Using gas phase 1.	
Using temperature 1.	

-----------------------------------Gas phase-----------------------------------

Total pressure: 104.78      atmospheres          (Peng-Robinson calculation)
    Gas volume:   1.00e+00 liters
  Molar volume:   2.65e-01 liters/mole
   P * Vm / RT:  0.81433  (Compressibility Factor Z) 

                                                        Moles in gas
                                            ----------------------------------
Component         log P           P    phi     Initial       Final       Delta

CO2(g)             1.99   9.873e+01  0.834   0.000e+00   3.562e+00   3.562e+00
H2O(g)             0.78   6.056e+00  0.631   0.000e+00   2.185e-01   2.185e-01

-------------------------------Phase assemblage--------------------------------

                                                      Moles in assemblage
Phase               SI  log IAP  log K(T, P)   Initial       Final       Delta

CO2(g)            1.92    -0.16     -2.08    1.000e+01   5.748e+00  -4.252e+00

-----------------------------Solution composition------------------------------

	Elements           Molality       Moles

	C                 6.928e-01   6.901e-01

----------------------------Description of solution----------------------------

                                       pH  =   3.422      Charge balance
                                       pe  =   1.969      Adjusted to redox equilibrium
       Specific Conductance (uS/cm, 141 oC) = 694
                          Density (g/cm3)  =   0.94085
                               Volume (L)  =   1.12691
                        Activity of water  =   0.988
                           Ionic strength  =   3.897e-04
                       Mass of water (kg)  =   9.961e-01
                 Total alkalinity (eq/kg)  =  -6.242e-13
                       Total CO2 (mol/kg)  =   6.928e-01
                      Temperature (deg C)  = 141.67
                           Pressure (atm)  = 104.78
                  Electrical balance (eq)  =   6.217e-13
 Percent error, 100*(Cat-|An|)/(Cat+|An|)  =   0.00
                               Iterations  =  30
                                  Total H  = 1.105755e+02
                                  Total O  = 5.666792e+01

----------------------------Distribution of species----------------------------

                                               Log       Log       Log    mole V
   Species          Molality    Activity  Molality  Activity     Gamma   cm3/mol

   H+              3.897e-04   3.788e-04    -3.409    -3.422    -0.012      0.00
   OH-             5.796e-09   5.628e-09    -8.237    -8.250    -0.013    -10.93
   H2O             5.551e+01   9.882e-01     1.744    -0.005     0.000     19.48
C(-4)         1.289e-32
   CH4             1.289e-32   1.289e-32   -31.890   -31.890     0.000     32.22
C(4)          6.928e-01
   CO2             6.924e-01   6.925e-01    -0.160    -0.160     0.000     19.90
   HCO3-           3.897e-04   3.785e-04    -3.409    -3.422    -0.013     21.38
   CO3-2           5.878e-11   5.231e-11   -10.231   -10.281    -0.051    -19.62
H(0)          9.333e-15
   H2              4.667e-15   4.667e-15   -14.331   -14.331     0.000     28.51
O(0)          3.665e-37
   O2              1.832e-37   1.833e-37   -36.737   -36.737     0.000     35.09

------------------------------Saturation indices-------------------------------

	Phase               SI   log IAP   log K(414 K, 105 atm)

	CH4(g)          -28.85    -31.89   -3.04  CH4
	CO2(g)            1.92     -0.16   -2.08  CO2	 Pressure  98.7 atm, phi 0.834.
	H2(g)           -11.29    -14.33   -3.04  H2
	H2O(g)            0.58     -0.01   -0.59  H2O	 Pressure   6.1 atm, phi 0.631.
	O2(g)           -33.63    -36.74   -3.11  O2


Reaction step 8.

Using solution 1.	
Using pure phase assemblage 1.	
Using gas phase 1.	
Using temperature 1.	

-----------------------------------Gas phase-----------------------------------

Total pressure: 108.58      atmospheres          (Peng-Robinson calculation)
    Gas volume:   1.00e+00 liters
  Molar volume:   2.74e-01 liters/mole
   P * Vm / RT:  0.83505  (Compressibility Factor Z) 

                                                        Moles in gas
                                            ----------------------------------
Component         log P           P    phi     Initial       Final       Delta

CO2(g)             2.00   9.886e+01  0.858   0.000e+00   3.322e+00   3.322e+00
H2O(g)             0.99   9.720e+00  0.652   0.000e+00   3.267e-01   3.267e-01

-------------------------------Phase assemblage--------------------------------

                                                      Moles in assemblage
Phase               SI  log IAP  log K(T, P)   Initial       Final       Delta

CO2(g)            1.93    -0.16     -2.09    1.000e+01   5.990e+00  -4.010e+00

-----------------------------Solution composition------------------------------

	Elements           Molality       Moles

	C                 6.919e-01   6.878e-01

----------------------------Description of solution----------------------------

                                       pH  =   3.501      Charge balance
                                       pe  =   1.942      Adjusted to redox equilibrium
       Specific Conductance (uS/cm, 161 oC) = 669
                          Density (g/cm3)  =   0.92263
                               Volume (L)  =   1.14683
                        Activity of water  =   0.988
                           Ionic strength  =   3.247e-04
                       Mass of water (kg)  =   9.941e-01
                 Total alkalinity (eq/kg)  =   1.754e-13
                       Total CO2 (mol/kg)  =   6.919e-01
                      Temperature (deg C)  = 161.11
                           Pressure (atm)  = 108.58
                  Electrical balance (eq)  =  -1.744e-13
 Percent error, 100*(Cat-|An|)/(Cat+|An|)  =  -0.00
                               Iterations  =  28
                                  Total H  = 1.103591e+02
                                  Total O  = 5.655519e+01

----------------------------Distribution of species----------------------------

                                               Log       Log       Log    mole V
   Species          Molality    Activity  Molality  Activity     Gamma   cm3/mol

   H+              3.247e-04   3.158e-04    -3.489    -3.501    -0.012      0.00
   OH-             1.041e-08   1.011e-08    -7.983    -7.995    -0.012    -14.30
   H2O             5.551e+01   9.882e-01     1.744    -0.005     0.000     19.88
C(-4)         9.133e-35
   CH4             9.133e-35   9.133e-35   -34.039   -34.039     0.000     32.22
C(4)          6.919e-01
   CO2             6.916e-01   6.916e-01    -0.160    -0.160     0.000     19.60
   HCO3-           3.247e-04   3.156e-04    -3.489    -3.501    -0.012     18.61
   CO3-2           4.443e-11   3.969e-11   -10.352   -10.401    -0.049    -28.45
H(0)          6.666e-15
   H2              3.333e-15   3.333e-15   -14.477   -14.477     0.000     28.51
O(0)          8.987e-34
   O2              4.494e-34   4.494e-34   -33.347   -33.347     0.000     35.97

------------------------------Saturation indices-------------------------------

	Phase               SI   log IAP   log K(434 K, 109 atm)

	CH4(g)          -31.06    -34.04   -2.97  CH4
	CO2(g)            1.93     -0.16   -2.09  CO2	 Pressure  98.9 atm, phi 0.858.
	H2(g)           -11.50    -14.48   -2.98  H2
	H2O(g)            0.80     -0.01   -0.81  H2O	 Pressure   9.7 atm, phi 0.652.
	O2(g)           -30.29    -33.35   -3.06  O2


Reaction step 9.

Using solution 1.	
Using pure phase assemblage 1.	
Using gas phase 1.	
Using temperature 1.	

-----------------------------------Gas phase-----------------------------------

Total pressure: 113.91      atmospheres          (Peng-Robinson calculation)
    Gas volume:   1.00e+00 liters
  Molar volume:   2.77e-01 liters/mole
   P * Vm / RT:  0.84720  (Compressibility Factor Z) 

                                                        Moles in gas
                                            ----------------------------------
Component         log P           P    phi     Initial       Final       Delta

CO2(g)             2.00   9.889e+01  0.879   0.000e+00   3.135e+00   3.135e+00
H2O(g)             1.18   1.502e+01  0.664   0.000e+00   4.763e-01   4.763e-01

-------------------------------Phase assemblage--------------------------------

                                                      Moles in assemblage
Phase               SI  log IAP  log K(T, P)   Initial       Final       Delta

CO2(g)            1.94    -0.15     -2.09    1.000e+01   6.162e+00  -3.838e+00

-----------------------------Solution composition------------------------------

	Elements           Molality       Moles

	C                 7.090e-01   7.029e-01

----------------------------Description of solution----------------------------

                                       pH  =   3.581      Charge balance
                                       pe  =   1.792      Adjusted to redox equilibrium
       Specific Conductance (uS/cm, 180 oC) = 633
                          Density (g/cm3)  =   0.90308
                               Volume (L)  =   1.17023
                        Activity of water  =   0.988
                           Ionic strength  =   2.694e-04
                       Mass of water (kg)  =   9.914e-01
                 Total alkalinity (eq/kg)  =   4.765e-13
                       Total CO2 (mol/kg)  =   7.090e-01
                      Temperature (deg C)  = 180.56
                           Pressure (atm)  = 113.91
                  Electrical balance (eq)  =  -4.725e-13
 Percent error, 100*(Cat-|An|)/(Cat+|An|)  =  -0.00
                               Iterations  =  35
                                  Total H  = 1.100599e+02
                                  Total O  = 5.643575e+01

----------------------------Distribution of species----------------------------

                                               Log       Log       Log    mole V
   Species          Molality    Activity  Molality  Activity     Gamma   cm3/mol

   H+              2.694e-04   2.623e-04    -3.570    -3.581    -0.012      0.00
   OH-             1.707e-08   1.661e-08    -7.768    -7.780    -0.012    -18.85
   H2O             5.551e+01   9.879e-01     1.744    -0.005     0.000     20.32
C(-4)         7.677e-36
   CH4             7.677e-36   7.677e-36   -35.115   -35.115     0.000     32.22
C(4)          7.090e-01
   CO2             7.087e-01   7.088e-01    -0.150    -0.150     0.000     19.38
   HCO3-           2.694e-04   2.622e-04    -3.570    -3.581    -0.012     14.79
   CO3-2           3.218e-11   2.884e-11   -10.492   -10.540    -0.048    -40.44
H(0)          8.423e-15
   H2              4.212e-15   4.212e-15   -14.376   -14.376     0.000     28.50
O(0)          3.809e-31
   O2              1.905e-31   1.905e-31   -30.720   -30.720     0.000     37.05

------------------------------Saturation indices-------------------------------

	Phase               SI   log IAP   log K(453 K, 114 atm)

	CH4(g)          -32.21    -35.11   -2.90  CH4
	CO2(g)            1.94     -0.15   -2.09  CO2	 Pressure  98.9 atm, phi 0.879.
	H2(g)           -11.46    -14.38   -2.92  H2
	H2O(g)            1.00     -0.01   -1.00  H2O	 Pressure  15.0 atm, phi 0.664.
	O2(g)           -27.73    -30.72   -2.99  O2


Reaction step 10.

Using solution 1.	
Using pure phase assemblage 1.	
Using gas phase 1.	
Using temperature 1.	

-----------------------------------Gas phase-----------------------------------

Total pressure: 121.14      atmospheres          (Peng-Robinson calculation)
    Gas volume:   1.00e+00 liters
  Molar volume:   2.73e-01 liters/mole
   P * Vm / RT:  0.85159  (Compressibility Factor Z) 

                                                        Moles in gas
                                            ----------------------------------
Component         log P           P    phi     Initial       Final       Delta

CO2(g)             1.99   9.869e+01  0.899   0.000e+00   2.985e+00   2.985e+00
H2O(g)             1.35   2.244e+01  0.667   0.000e+00   6.787e-01   6.787e-01

-------------------------------Phase assemblage--------------------------------

                                                      Moles in assemblage
Phase               SI  log IAP  log K(T, P)   Initial       Final       Delta

CO2(g)            1.95    -0.13     -2.08    1.000e+01   6.281e+00  -3.719e+00

-----------------------------Solution composition------------------------------

	Elements           Molality       Moles

	C                 7.432e-01   7.341e-01

----------------------------Description of solution----------------------------

                                       pH  =   3.663      Charge balance
                                       pe  =   5.748      Adjusted to redox equilibrium
       Specific Conductance (uS/cm, 200 oC) = 591
                          Density (g/cm3)  =   0.88206
                               Volume (L)  =   1.19726
                        Activity of water  =   0.987
                           Ionic strength  =   2.231e-04
                       Mass of water (kg)  =   9.878e-01
                 Total alkalinity (eq/kg)  =  -2.745e-13
                       Total CO2 (mol/kg)  =   7.432e-01
                      Temperature (deg C)  = 200.00
                           Pressure (atm)  = 121.14
                  Electrical balance (eq)  =   2.711e-13
 Percent error, 100*(Cat-|An|)/(Cat+|An|)  =   0.00
                               Iterations  =  25
                                  Total H  = 1.096549e+02
                                  Total O  = 5.629567e+01

----------------------------Distribution of species----------------------------

                                               Log       Log       Log    mole V
   Species          Molality    Activity  Molality  Activity     Gamma   cm3/mol

   H+              2.231e-04   2.174e-04    -3.652    -3.663    -0.011      0.00
   OH-             2.580e-08   2.512e-08    -7.588    -7.600    -0.012    -25.04
   H2O             5.551e+01   9.874e-01     1.744    -0.006     0.000     20.84
C(-4)         0.000e+00
   CH4             0.000e+00   0.000e+00   -68.970   -68.970     0.000     32.22
C(4)          7.432e-01
   CO2             7.430e-01   7.430e-01    -0.129    -0.129     0.000     19.23
   HCO3-           2.231e-04   2.172e-04    -3.652    -3.663    -0.012      9.53
   CO3-2           2.256e-11   2.029e-11   -10.647   -10.693    -0.046    -56.85
H(0)          6.514e-23
   H2              3.257e-23   3.257e-23   -22.487   -22.487     0.000     28.50
O(0)          2.513e-12
   O2              1.256e-12   1.256e-12   -11.901   -11.901     0.000     38.44

------------------------------Saturation indices-------------------------------

	Phase               SI   log IAP   log K(473 K, 121 atm)

	CH4(g)          -66.15    -68.97   -2.82  CH4
	CO2(g)            1.95     -0.13   -2.08  CO2	 Pressure  98.7 atm, phi 0.899.
	H2(g)           -19.64    -22.49   -2.85  H2
	H2O(g)            1.18     -0.01   -1.18  H2O	 Pressure  22.4 atm, phi 0.667.
	O2(g)            -8.98    -11.90   -2.92  O2


------------------
End of simulation.
------------------

------------------------------------
Reading input data for simulation 2.
------------------------------------

------------------------------
End of Run after 0.05 Seconds.
------------------------------

