WARNING: Database file from DATABASE keyword is used; command line argument ignored.
   Input file: CO2_conc_PR_GP
  Output file: CO2_conc_PR_GP.out
Database file: ../database/phreeqc.dat

------------------
Reading data base.
------------------

	SOLUTION_MASTER_SPECIES
	SOLUTION_SPECIES
	PHASES
	EXCHANGE_MASTER_SPECIES
	EXCHANGE_SPECIES
	SURFACE_MASTER_SPECIES
	SURFACE_SPECIES
	MEAN_GAMMAS
	RATES
	END
------------------------------------
Reading input data for simulation 1.
------------------------------------

	DATABASE ../database/phreeqc.dat
	SELECTED_OUTPUT 101
	    file                 CO2_conc_PR_GP_101.sel
	USER_PUNCH 101
	    headings Mu SC
	    start
	10 PUNCH STR_F$(MU, 20, 12)
	20 PUNCH STR_F$(SC, 20, 10)
	    end
	KNOBS
	SOLUTION 1 pH 7 charge
	GAS_PHASE 6
	    fixed_volume
	    CO2(g) 0
		H2O(g) 0
	USER_GRAPH
	 -chart_title "Using: GAS_PHASE with H2O(g)"
	 -plot_csv_file co2.dat
	 -axis_titles "Pressure / atm" "CO2 / (mol/kgw)"
	 -axis_scale x_axis 0 500
	 -axis_scale y_axis 0 2
	 -init true
	 10 x = PR_P("CO2(g)")
	 20 graph_x x
	 30 graph_y tot("C(4)")
	 -end
	INCREMENTAL_REACTIONS
	REACTION
	 CO2 1
	 27 in 26
	END
-------------------------------------------
Beginning of initial solution calculations.
-------------------------------------------

Initial solution 1.	pH 7 charge

-----------------------------Solution composition------------------------------

	Elements           Molality       Moles

	Pure water     

----------------------------Description of solution----------------------------

                                       pH  =   7.000    
                                       pe  =   4.000    
      Specific Conductance (µS/cm,  25°C)  = 0
                          Density (g/cm³)  =   0.99704
                               Volume (L)  =   1.00297
                        Viscosity (mPa s)  =   0.89002
                        Activity of water  =   1.000
                 Ionic strength (mol/kgw)  =   1.007e-07
                       Mass of water (kg)  =   1.000e+00
                 Total alkalinity (eq/kg)  =   1.217e-09
                         Temperature (°C)  =  25.00
                  Electrical balance (eq)  =  -1.217e-09
 Percent error, 100*(Cat-|An|)/(Cat+|An|)  =  -0.60
                               Iterations  =   0
                                  Total H  = 1.110124e+02
                                  Total O  = 5.550622e+01

----------------------------Distribution of species----------------------------

                                               Log       Log       Log    mole V
   Species          Molality    Activity  Molality  Activity     Gamma   cm³/mol

   OH-             1.013e-07   1.012e-07    -6.995    -6.995    -0.000     -4.14
   H+              1.001e-07   1.000e-07    -7.000    -7.000    -0.000      0.00
   H2O             5.551e+01   1.000e+00     1.744     0.000     0.000     18.07
H(0)          1.416e-25
   H2              7.079e-26   7.079e-26   -25.150   -25.150     0.000     28.61
O(0)          0.000e+00
   O2              0.000e+00   0.000e+00   -42.080   -42.080     0.000     30.40

------------------------------Saturation indices-------------------------------

  Phase               SI** log IAP   log K(298 K,   1 atm)

  H2(g)           -22.05    -25.15   -3.10  H2
  H2O(g)           -1.50      0.00    1.50  H2O
  O2(g)           -39.19    -42.08   -2.89  O2

**For a gas, SI = log10(fugacity). Fugacity = pressure * phi / 1 atm.
  For ideal gases, phi = 1.

-----------------------------------------
Beginning of batch-reaction calculations.
-----------------------------------------

Reaction step 1.

Using solution 1.	pH 7 charge
Using gas phase 6.	
Using reaction 1.	

Reaction 1.	

	  1.038e+00 moles of the following reaction have been added:

	                 Relative
	Reactant            moles

	CO2                  1.00000

	                 Relative
	Element             moles
	C                    1.00000
	O                    2.00000

-----------------------------------Gas phase-----------------------------------

Total pressure: 13.73      atmospheres          (Peng-Robinson calculation)
    Gas volume:   1.00e+00 liters
  Molar volume:   1.64e+00 liters/mole
   P * Vm / RT:  0.92064  (Compressibility Factor Z) 

                                                        Moles in gas
                                            ----------------------------------
Component         log P           P    phi     Initial       Final       Delta

CO2(g)             1.14   1.369e+01  0.925   0.000e+00   6.079e-01   6.079e-01
H2O(g)            -1.44   3.605e-02  0.873   0.000e+00   1.600e-03   1.600e-03

-----------------------------Solution composition------------------------------

	Elements           Molality       Moles

	C                 4.305e-01   4.305e-01

----------------------------Description of solution----------------------------

                                       pH  =   3.361      Charge balance
                                       pe  =  14.518      Adjusted to redox equilibrium
      Specific Conductance (µS/cm,  25°C)  = 168
                          Density (g/cm³)  =   1.00172
                               Volume (L)  =   1.01717
                        Viscosity (mPa s)  =   0.89005
                        Activity of water  =   0.993
                 Ionic strength (mol/kgw)  =   4.460e-04
                       Mass of water (kg)  =   1.000e+00
                 Total alkalinity (eq/kg)  =   1.216e-09
                       Total CO2 (mol/kg)  =   4.305e-01
                         Temperature (°C)  =  25.00
                           Pressure (atm)  = 13.73
                  Electrical balance (eq)  =  -1.216e-09
 Percent error, 100*(Cat-|An|)/(Cat+|An|)  =  -0.00
                               Iterations  =  47
                                  Total H  = 1.110092e+02
                                  Total O  = 5.636567e+01

----------------------------Distribution of species----------------------------

                                               Log       Log       Log    mole V
   Species          Molality    Activity  Molality  Activity     Gamma   cm³/mol

   H+              4.460e-04   4.357e-04    -3.351    -3.361    -0.010      0.00
   OH-             2.390e-11   2.333e-11   -10.622   -10.632    -0.011     -4.07
   H2O             5.551e+01   9.927e-01     1.744    -0.003     0.000     18.06
C(-4)         0.000e+00
   CH4             0.000e+00   0.000e+00  -119.017  -119.017     0.000     35.47
C(4)          4.305e-01
   CO2             4.235e-01   4.235e-01    -0.373    -0.373     0.000     34.43
   (CO2)2          3.292e-03   3.293e-03    -2.482    -2.482     0.000     68.85
   HCO3-           4.460e-04   4.355e-04    -3.351    -3.361    -0.010     24.61
   CO3-2           5.234e-11   4.757e-11   -10.281   -10.323    -0.042     -3.85
H(0)          2.435e-39
   H2              1.217e-39   1.217e-39   -38.915   -38.915     0.000     28.60
O(0)          5.396e-15
   O2              2.698e-15   2.698e-15   -14.569   -14.569     0.000     30.38

------------------------------Saturation indices-------------------------------

  Phase               SI** log IAP   log K(298 K,  14 atm)

  CH4(g)         -116.21   -119.02   -2.81  CH4
  CO2(g)            1.10     -0.37   -1.48  CO2	 Pressure  13.7 atm, phi 0.925
  H2(g)           -35.81    -38.91   -3.11  H2
  H2O(g)           -1.50     -0.00    1.50  H2O	 Pressure   0.0 atm, phi 0.873
  O2(g)           -11.67    -14.57   -2.90  O2

**For a gas, SI = log10(fugacity). Fugacity = pressure * phi / 1 atm.
  For ideal gases, phi = 1.

Reaction step 2.

Using solution 1.	pH 7 charge
Using gas phase 6.	
Using reaction 1.	

Reaction 1.	

	  1.038e+00 moles of the following reaction have been added:

	                 Relative
	Reactant            moles

	CO2                  1.00000

	                 Relative
	Element             moles
	C                    1.00000
	O                    2.00000

-----------------------------------Gas phase-----------------------------------

Total pressure: 26.77      atmospheres          (Peng-Robinson calculation)
    Gas volume:   1.00e+00 liters
  Molar volume:   7.66e-01 liters/mole
   P * Vm / RT:  0.83771  (Compressibility Factor Z) 

                                                        Moles in gas
                                            ----------------------------------
Component         log P           P    phi     Initial       Final       Delta

CO2(g)             1.43   2.673e+01  0.857   6.079e-01   1.304e+00   6.962e-01
H2O(g)            -1.38   4.170e-02  0.758   1.600e-03   2.035e-03   4.344e-04

-----------------------------Solution composition------------------------------

	Elements           Molality       Moles

	C                 7.728e-01   7.728e-01

----------------------------Description of solution----------------------------

                                       pH  =   3.234      Charge balance
                                       pe  =  14.734      Adjusted to redox equilibrium
      Specific Conductance (µS/cm,  25°C)  = 221
                          Density (g/cm³)  =   1.00547
                               Volume (L)  =   1.02835
                        Viscosity (mPa s)  =   0.88994
                        Activity of water  =   0.987
                 Ionic strength (mol/kgw)  =   5.989e-04
                       Mass of water (kg)  =   1.000e+00
                 Total alkalinity (eq/kg)  =   1.216e-09
                       Total CO2 (mol/kg)  =   7.728e-01
                         Temperature (°C)  =  25.00
                           Pressure (atm)  = 26.77
                  Electrical balance (eq)  =  -1.216e-09
 Percent error, 100*(Cat-|An|)/(Cat+|An|)  =  -0.00
                               Iterations  =  30
                                  Total H  = 1.110084e+02
                                  Total O  = 5.704973e+01

----------------------------Distribution of species----------------------------

                                               Log       Log       Log    mole V
   Species          Molality    Activity  Molality  Activity     Gamma   cm³/mol

   H+              5.989e-04   5.831e-04    -3.223    -3.234    -0.012      0.00
   OH-             1.803e-11   1.754e-11   -10.744   -10.756    -0.012     -4.02
   H2O             5.551e+01   9.870e-01     1.744    -0.006     0.000     18.05
C(-4)         0.000e+00
   CH4             0.000e+00   0.000e+00  -119.482  -119.482     0.000     35.49
C(4)          7.728e-01
   CO2             7.515e-01   7.515e-01    -0.124    -0.124     0.000     34.42
   (CO2)2          1.037e-02   1.037e-02    -1.984    -1.984     0.000     68.84
   HCO3-           5.989e-04   5.827e-04    -3.223    -3.235    -0.012     24.66
   CO3-2           5.390e-11   4.828e-11   -10.268   -10.316    -0.048     -3.72
H(0)          1.593e-39
   H2              7.967e-40   7.968e-40   -39.099   -39.099     0.000     28.59
O(0)          1.212e-14
   O2              6.058e-15   6.059e-15   -14.218   -14.218     0.000     30.36

------------------------------Saturation indices-------------------------------

  Phase               SI** log IAP   log K(298 K,  27 atm)

  CH4(g)         -116.66   -119.48   -2.82  CH4
  CO2(g)            1.36     -0.12   -1.48  CO2	 Pressure  26.7 atm, phi 0.857
  H2(g)           -35.98    -39.10   -3.11  H2
  H2O(g)           -1.50     -0.01    1.49  H2O	 Pressure   0.0 atm, phi 0.758
  O2(g)           -11.31    -14.22   -2.91  O2

**For a gas, SI = log10(fugacity). Fugacity = pressure * phi / 1 atm.
  For ideal gases, phi = 1.

Reaction step 3.

Using solution 1.	pH 7 charge
Using gas phase 6.	
Using reaction 1.	

Reaction 1.	

	  1.038e+00 moles of the following reaction have been added:

	                 Relative
	Reactant            moles

	CO2                  1.00000

	                 Relative
	Element             moles
	C                    1.00000
	O                    2.00000

-----------------------------------Gas phase-----------------------------------

Total pressure: 38.54      atmospheres          (Peng-Robinson calculation)
    Gas volume:   1.00e+00 liters
  Molar volume:   4.78e-01 liters/mole
   P * Vm / RT:  0.75284  (Compressibility Factor Z) 

                                                        Moles in gas
                                            ----------------------------------
Component         log P           P    phi     Initial       Final       Delta

CO2(g)             1.59   3.849e+01  0.796   1.304e+00   2.090e+00   7.855e-01
H2O(g)            -1.31   4.844e-02  0.655   2.035e-03   2.630e-03   5.954e-04

-----------------------------Solution composition------------------------------

	Elements           Molality       Moles

	C                 1.026e+00   1.026e+00

----------------------------Description of solution----------------------------

                                       pH  =   3.173      Charge balance
                                       pe  =  14.879      Adjusted to redox equilibrium
      Specific Conductance (µS/cm,  25°C)  = 251
                          Density (g/cm³)  =   1.00829
                               Volume (L)  =   1.03651
                        Viscosity (mPa s)  =   0.88982
                        Activity of water  =   0.983
                 Ionic strength (mol/kgw)  =   6.916e-04
                       Mass of water (kg)  =   9.999e-01
                 Total alkalinity (eq/kg)  =   1.216e-09
                       Total CO2 (mol/kg)  =   1.026e+00
                         Temperature (°C)  =  25.00
                           Pressure (atm)  = 38.54
                  Electrical balance (eq)  =  -1.216e-09
 Percent error, 100*(Cat-|An|)/(Cat+|An|)  =  -0.00
                               Iterations  =  28
                                  Total H  = 1.110072e+02
                                  Total O  = 5.755514e+01

----------------------------Distribution of species----------------------------

                                               Log       Log       Log    mole V
   Species          Molality    Activity  Molality  Activity     Gamma   cm³/mol

   H+              6.916e-04   6.721e-04    -3.160    -3.173    -0.012      0.00
   OH-             1.578e-11   1.531e-11   -10.802   -10.815    -0.013     -3.97
   H2O             5.551e+01   9.829e-01     1.744    -0.008     0.000     18.04
C(-4)         0.000e+00
   CH4             0.000e+00   0.000e+00  -120.038  -120.038     0.000     35.51
C(4)          1.026e+00
   CO2             9.892e-01   9.893e-01    -0.005    -0.005     0.000     34.42
   (CO2)2          1.796e-02   1.797e-02    -1.746    -1.746     0.000     68.83
   HCO3-           6.916e-04   6.715e-04    -3.160    -3.173    -0.013     24.70
   CO3-2           5.506e-11   4.894e-11   -10.259   -10.310    -0.051     -3.60
H(0)          1.068e-39
   H2              5.340e-40   5.341e-40   -39.272   -39.272     0.000     28.59
O(0)          2.609e-14
   O2              1.304e-14   1.305e-14   -13.885   -13.884     0.000     30.35

------------------------------Saturation indices-------------------------------

  Phase               SI** log IAP   log K(298 K,  39 atm)

  CH4(g)         -117.21   -120.04   -2.83  CH4
  CO2(g)            1.49     -0.00   -1.49  CO2	 Pressure  38.5 atm, phi 0.796
  H2(g)           -36.15    -39.27   -3.12  H2
  H2O(g)           -1.50     -0.01    1.49  H2O	 Pressure   0.0 atm, phi 0.655
  O2(g)           -10.97    -13.88   -2.91  O2

**For a gas, SI = log10(fugacity). Fugacity = pressure * phi / 1 atm.
  For ideal gases, phi = 1.

Reaction step 4.

Using solution 1.	pH 7 charge
Using gas phase 6.	
Using reaction 1.	

Reaction 1.	

	  1.038e+00 moles of the following reaction have been added:

	                 Relative
	Reactant            moles

	CO2                  1.00000

	                 Relative
	Element             moles
	C                    1.00000
	O                    2.00000

-----------------------------------Gas phase-----------------------------------

Total pressure: 48.42      atmospheres          (Peng-Robinson calculation)
    Gas volume:   1.00e+00 liters
  Molar volume:   3.38e-01 liters/mole
   P * Vm / RT:  0.66870  (Compressibility Factor Z) 

                                                        Moles in gas
                                            ----------------------------------
Component         log P           P    phi     Initial       Final       Delta

CO2(g)             1.68   4.837e+01  0.746   2.090e+00   2.956e+00   8.667e-01
H2O(g)            -1.25   5.619e-02  0.567   2.630e-03   3.434e-03   8.042e-04

-----------------------------Solution composition------------------------------

	Elements           Molality       Moles

	C                 1.198e+00   1.198e+00

----------------------------Description of solution----------------------------

                                       pH  =   3.138      Charge balance
                                       pe  =  14.896      Adjusted to redox equilibrium
      Specific Conductance (µS/cm,  25°C)  = 269
                          Density (g/cm³)  =   1.01026
                               Volume (L)  =   1.04195
                        Viscosity (mPa s)  =   0.88972
                        Activity of water  =   0.980
                 Ionic strength (mol/kgw)  =   7.491e-04
                       Mass of water (kg)  =   9.999e-01
                 Total alkalinity (eq/kg)  =   1.217e-09
                       Total CO2 (mol/kg)  =   1.198e+00
                         Temperature (°C)  =  25.00
                           Pressure (atm)  = 48.42
                  Electrical balance (eq)  =  -1.217e-09
 Percent error, 100*(Cat-|An|)/(Cat+|An|)  =  -0.00
                               Iterations  =  20
                                  Total H  = 1.110056e+02
                                  Total O  = 5.789786e+01

----------------------------Distribution of species----------------------------

                                               Log       Log       Log    mole V
   Species          Molality    Activity  Molality  Activity     Gamma   cm³/mol

   H+              7.491e-04   7.272e-04    -3.125    -3.138    -0.013      0.00
   OH-             1.468e-11   1.423e-11   -10.833   -10.847    -0.014     -3.94
   H2O             5.551e+01   9.800e-01     1.744    -0.009     0.000     18.03
C(-4)         0.000e+00
   CH4             0.000e+00   0.000e+00  -119.838  -119.838     0.000     35.52
C(4)          1.198e+00
   CO2             1.148e+00   1.149e+00     0.060     0.060     0.000     34.41
   (CO2)2          2.421e-02   2.422e-02    -1.616    -1.616     0.000     68.82
   HCO3-           7.491e-04   7.265e-04    -3.125    -3.139    -0.013     24.73
   CO3-2           5.593e-11   4.949e-11   -10.252   -10.305    -0.053     -3.50
H(0)          1.143e-39
   H2              5.716e-40   5.717e-40   -39.243   -39.243     0.000     28.58
O(0)          2.217e-14
   O2              1.109e-14   1.109e-14   -13.955   -13.955     0.000     30.33

------------------------------Saturation indices-------------------------------

  Phase               SI** log IAP   log K(298 K,  48 atm)

  CH4(g)         -117.01   -119.84   -2.83  CH4
  CO2(g)            1.56      0.06   -1.50  CO2	 Pressure  48.4 atm, phi 0.746
  H2(g)           -36.12    -39.24   -3.13  H2
  H2O(g)           -1.50     -0.01    1.49  H2O	 Pressure   0.1 atm, phi 0.567
  O2(g)           -11.04    -13.96   -2.92  O2

**For a gas, SI = log10(fugacity). Fugacity = pressure * phi / 1 atm.
  For ideal gases, phi = 1.

Reaction step 5.

Using solution 1.	pH 7 charge
Using gas phase 6.	
Using reaction 1.	

Reaction 1.	

	  1.038e+00 moles of the following reaction have been added:

	                 Relative
	Reactant            moles

	CO2                  1.00000

	                 Relative
	Element             moles
	C                    1.00000
	O                    2.00000

-----------------------------------Gas phase-----------------------------------

Total pressure: 56.01      atmospheres          (Peng-Robinson calculation)
    Gas volume:   1.00e+00 liters
  Molar volume:   2.57e-01 liters/mole
   P * Vm / RT:  0.58804  (Compressibility Factor Z) 

                                                        Moles in gas
                                            ----------------------------------
Component         log P           P    phi     Initial       Final       Delta

CO2(g)             1.75   5.595e+01  0.707   2.956e+00   3.889e+00   9.326e-01
H2O(g)            -1.19   6.468e-02  0.495   3.434e-03   4.496e-03   1.061e-03

-----------------------------Solution composition------------------------------

	Elements           Molality       Moles

	C                 1.304e+00   1.303e+00

----------------------------Description of solution----------------------------

                                       pH  =   3.119      Charge balance
                                       pe  =  14.865      Adjusted to redox equilibrium
      Specific Conductance (µS/cm,  25°C)  = 279
                          Density (g/cm³)  =   1.01153
                               Volume (L)  =   1.04523
                        Viscosity (mPa s)  =   0.88964
                        Activity of water  =   0.978
                 Ionic strength (mol/kgw)  =   7.833e-04
                       Mass of water (kg)  =   9.999e-01
                 Total alkalinity (eq/kg)  =   1.218e-09
                       Total CO2 (mol/kg)  =   1.304e+00
                         Temperature (°C)  =  25.00
                           Pressure (atm)  = 56.01
                  Electrical balance (eq)  =  -1.217e-09
 Percent error, 100*(Cat-|An|)/(Cat+|An|)  =  -0.00
                               Iterations  =  26
                                  Total H  = 1.110034e+02
                                  Total O  = 5.810853e+01

----------------------------Distribution of species----------------------------

                                               Log       Log       Log    mole V
   Species          Molality    Activity  Molality  Activity     Gamma   cm³/mol

   H+              7.833e-04   7.599e-04    -3.106    -3.119    -0.013      0.00
   OH-             1.413e-11   1.369e-11   -10.850   -10.864    -0.014     -3.91
   H2O             5.551e+01   9.783e-01     1.744    -0.010     0.000     18.02
C(-4)         0.000e+00
   CH4             0.000e+00   0.000e+00  -119.409  -119.408     0.000     35.53
C(4)          1.304e+00
   CO2             1.246e+00   1.246e+00     0.095     0.095     0.000     34.41
   (CO2)2          2.849e-02   2.849e-02    -1.545    -1.545     0.000     68.81
   HCO3-           7.833e-04   7.592e-04    -3.106    -3.120    -0.014     24.76
   CO3-2           5.656e-11   4.992e-11   -10.247   -10.302    -0.054     -3.43
H(0)          1.425e-39
   H2              7.125e-40   7.126e-40   -39.147   -39.147     0.000     28.58
O(0)          1.400e-14
   O2              6.998e-15   6.999e-15   -14.155   -14.155     0.000     30.32

------------------------------Saturation indices-------------------------------

  Phase               SI** log IAP   log K(298 K,  56 atm)

  CH4(g)         -116.57   -119.41   -2.84  CH4
  CO2(g)            1.60      0.10   -1.50  CO2	 Pressure  55.9 atm, phi 0.707
  H2(g)           -36.02    -39.15   -3.13  H2
  H2O(g)           -1.49     -0.01    1.49  H2O	 Pressure   0.1 atm, phi 0.495
  O2(g)           -11.23    -14.15   -2.92  O2

**For a gas, SI = log10(fugacity). Fugacity = pressure * phi / 1 atm.
  For ideal gases, phi = 1.

Reaction step 6.

Using solution 1.	pH 7 charge
Using gas phase 6.	
Using reaction 1.	

Reaction 1.	

	  1.038e+00 moles of the following reaction have been added:

	                 Relative
	Reactant            moles

	CO2                  1.00000

	                 Relative
	Element             moles
	C                    1.00000
	O                    2.00000

-----------------------------------Gas phase-----------------------------------

Total pressure: 61.20      atmospheres          (Peng-Robinson calculation)
    Gas volume:   1.00e+00 liters
  Molar volume:   2.05e-01 liters/mole
   P * Vm / RT:  0.51305  (Compressibility Factor Z) 

                                                        Moles in gas
                                            ----------------------------------
Component         log P           P    phi     Initial       Final       Delta

CO2(g)             1.79   6.112e+01  0.680   3.889e+00   4.869e+00   9.804e-01
H2O(g)            -1.13   7.355e-02  0.436   4.496e-03   5.860e-03   1.364e-03

-----------------------------Solution composition------------------------------

	Elements           Molality       Moles

	C                 1.362e+00   1.361e+00

----------------------------Description of solution----------------------------

                                       pH  =   3.109      Charge balance
                                       pe  =  14.965      Adjusted to redox equilibrium
      Specific Conductance (µS/cm,  25°C)  = 285
                          Density (g/cm³)  =   1.01227
                               Volume (L)  =   1.04696
                        Viscosity (mPa s)  =   0.88958
                        Activity of water  =   0.977
                 Ionic strength (mol/kgw)  =   8.020e-04
                       Mass of water (kg)  =   9.999e-01
                 Total alkalinity (eq/kg)  =   1.218e-09
                       Total CO2 (mol/kg)  =   1.362e+00
                         Temperature (°C)  =  25.00
                           Pressure (atm)  = 61.20
                  Electrical balance (eq)  =  -1.217e-09
 Percent error, 100*(Cat-|An|)/(Cat+|An|)  =  -0.00
                               Iterations  =  33
                                  Total H  = 1.110007e+02
                                  Total O  = 5.822322e+01

----------------------------Distribution of species----------------------------

                                               Log       Log       Log    mole V
   Species          Molality    Activity  Molality  Activity     Gamma   cm³/mol

   H+              8.020e-04   7.778e-04    -3.096    -3.109    -0.013      0.00
   OH-             1.386e-11   1.342e-11   -10.858   -10.872    -0.014     -3.89
   H2O             5.551e+01   9.774e-01     1.744    -0.010     0.000     18.02
C(-4)         0.000e+00
   CH4             0.000e+00   0.000e+00  -120.110  -120.109     0.000     35.54
C(4)          1.362e+00
   CO2             1.299e+00   1.299e+00     0.114     0.114     0.000     34.40
   (CO2)2          3.097e-02   3.097e-02    -1.509    -1.509     0.000     68.81
   HCO3-           8.020e-04   7.771e-04    -3.096    -3.110    -0.014     24.78
   CO3-2           5.697e-11   5.021e-11   -10.244   -10.299    -0.055     -3.38
H(0)          9.377e-40
   H2              4.688e-40   4.689e-40   -39.329   -39.329     0.000     28.58
O(0)          3.191e-14
   O2              1.596e-14   1.596e-14   -13.797   -13.797     0.000     30.31

------------------------------Saturation indices-------------------------------

  Phase               SI** log IAP   log K(298 K,  61 atm)

  CH4(g)         -117.27   -120.11   -2.84  CH4
  CO2(g)            1.62      0.11   -1.50  CO2	 Pressure  61.1 atm, phi 0.680
  H2(g)           -36.20    -39.33   -3.13  H2
  H2O(g)           -1.49     -0.01    1.48  H2O	 Pressure   0.1 atm, phi 0.436
  O2(g)           -10.87    -13.80   -2.92  O2

**For a gas, SI = log10(fugacity). Fugacity = pressure * phi / 1 atm.
  For ideal gases, phi = 1.

Reaction step 7.

Using solution 1.	pH 7 charge
Using gas phase 6.	
Using reaction 1.	

Reaction 1.	

	  1.038e+00 moles of the following reaction have been added:

	                 Relative
	Reactant            moles

	CO2                  1.00000

	                 Relative
	Element             moles
	C                    1.00000
	O                    2.00000

-----------------------------------Gas phase-----------------------------------

Total pressure: 64.13      atmospheres          (Peng-Robinson calculation)
    Gas volume:   1.00e+00 liters
  Molar volume:   1.70e-01 liters/mole
   P * Vm / RT:  0.44513  (Compressibility Factor Z) 

                                                        Moles in gas
                                            ----------------------------------
Component         log P           P    phi     Initial       Final       Delta

CO2(g)             1.81   6.405e+01  0.664   4.869e+00   5.881e+00   1.012e+00
H2O(g)            -1.08   8.241e-02  0.390   5.860e-03   7.567e-03   1.707e-03

-----------------------------Solution composition------------------------------

	Elements           Molality       Moles

	C                 1.388e+00   1.388e+00

----------------------------Description of solution----------------------------

                                       pH  =   3.104      Charge balance
                                       pe  =  14.970      Adjusted to redox equilibrium
      Specific Conductance (µS/cm,  25°C)  = 288
                          Density (g/cm³)  =   1.01263
                               Volume (L)  =   1.04771
                        Viscosity (mPa s)  =   0.88955
                        Activity of water  =   0.977
                 Ionic strength (mol/kgw)  =   8.107e-04
                       Mass of water (kg)  =   9.998e-01
                 Total alkalinity (eq/kg)  =   1.218e-09
                       Total CO2 (mol/kg)  =   1.388e+00
                         Temperature (°C)  =  25.00
                           Pressure (atm)  = 64.13
                  Electrical balance (eq)  =  -1.217e-09
 Percent error, 100*(Cat-|An|)/(Cat+|An|)  =  -0.00
                               Iterations  =  40
                                  Total H  = 1.109973e+02
                                  Total O  = 5.827470e+01

----------------------------Distribution of species----------------------------

                                               Log       Log       Log    mole V
   Species          Molality    Activity  Molality  Activity     Gamma   cm³/mol

   H+              8.107e-04   7.862e-04    -3.091    -3.104    -0.013      0.00
   OH-             1.374e-11   1.331e-11   -10.862   -10.876    -0.014     -3.88
   H2O             5.551e+01   9.769e-01     1.744    -0.010     0.000     18.02
C(-4)         0.000e+00
   CH4             0.000e+00   0.000e+00  -120.109  -120.109     0.000     35.54
C(4)          1.388e+00
   CO2             1.323e+00   1.323e+00     0.122     0.122     0.000     34.40
   (CO2)2          3.214e-02   3.214e-02    -1.493    -1.493     0.000     68.81
   HCO3-           8.107e-04   7.854e-04    -3.091    -3.105    -0.014     24.79
   CO3-2           5.720e-11   5.038e-11   -10.243   -10.298    -0.055     -3.35
H(0)          9.311e-40
   H2              4.655e-40   4.656e-40   -39.332   -39.332     0.000     28.58
O(0)          3.213e-14
   O2              1.607e-14   1.607e-14   -13.794   -13.794     0.000     30.31

------------------------------Saturation indices-------------------------------

  Phase               SI** log IAP   log K(298 K,  64 atm)

  CH4(g)         -117.27   -120.11   -2.84  CH4
  CO2(g)            1.63      0.12   -1.51  CO2	 Pressure  64.1 atm, phi 0.664
  H2(g)           -36.20    -39.33   -3.13  H2
  H2O(g)           -1.49     -0.01    1.48  H2O	 Pressure   0.1 atm, phi 0.390
  O2(g)           -10.87    -13.79   -2.93  O2

**For a gas, SI = log10(fugacity). Fugacity = pressure * phi / 1 atm.
  For ideal gases, phi = 1.

Reaction step 8.

Using solution 1.	pH 7 charge
Using gas phase 6.	
Using reaction 1.	

Reaction 1.	

	  1.038e+00 moles of the following reaction have been added:

	                 Relative
	Reactant            moles

	CO2                  1.00000

	                 Relative
	Element             moles
	C                    1.00000
	O                    2.00000

-----------------------------------Gas phase-----------------------------------

Total pressure: 65.18      atmospheres          (Peng-Robinson calculation)
    Gas volume:   1.00e+00 liters
  Molar volume:   1.44e-01 liters/mole
   P * Vm / RT:  0.38492  (Compressibility Factor Z) 

                                                        Moles in gas
                                            ----------------------------------
Component         log P           P    phi     Initial       Final       Delta

CO2(g)             1.81   6.509e+01  0.657   5.881e+00   6.912e+00   1.031e+00
H2O(g)            -1.04   9.092e-02  0.354   7.567e-03   9.655e-03   2.087e-03

-----------------------------Solution composition------------------------------

	Elements           Molality       Moles

	C                 1.396e+00   1.396e+00

----------------------------Description of solution----------------------------

                                       pH  =   3.103      Charge balance
                                       pe  =  14.999      Adjusted to redox equilibrium
      Specific Conductance (µS/cm,  25°C)  = 289
                          Density (g/cm³)  =   1.01275
                               Volume (L)  =   1.04790
                        Viscosity (mPa s)  =   0.88954
                        Activity of water  =   0.977
                 Ionic strength (mol/kgw)  =   8.134e-04
                       Mass of water (kg)  =   9.998e-01
                 Total alkalinity (eq/kg)  =   1.218e-09
                       Total CO2 (mol/kg)  =   1.396e+00
                         Temperature (°C)  =  25.00
                           Pressure (atm)  = 65.18
                  Electrical balance (eq)  =  -1.217e-09
 Percent error, 100*(Cat-|An|)/(Cat+|An|)  =  -0.00
                               Iterations  =  40
                                  Total H  = 1.109931e+02
                                  Total O  = 5.828821e+01

----------------------------Distribution of species----------------------------

                                               Log       Log       Log    mole V
   Species          Molality    Activity  Molality  Activity     Gamma   cm³/mol

   H+              8.134e-04   7.887e-04    -3.090    -3.103    -0.013      0.00
   OH-             1.371e-11   1.328e-11   -10.863   -10.877    -0.014     -3.87
   H2O             5.551e+01   9.768e-01     1.744    -0.010     0.000     18.02
C(-4)         0.000e+00
   CH4             0.000e+00   0.000e+00  -120.326  -120.326     0.000     35.54
C(4)          1.396e+00
   CO2             1.330e+00   1.330e+00     0.124     0.124     0.000     34.40
   (CO2)2          3.249e-02   3.249e-02    -1.488    -1.488     0.000     68.81
   HCO3-           8.134e-04   7.880e-04    -3.090    -3.104    -0.014     24.79
   CO3-2           5.728e-11   5.044e-11   -10.242   -10.297    -0.055     -3.34
H(0)          8.200e-40
   H2              4.100e-40   4.101e-40   -39.387   -39.387     0.000     28.58
O(0)          4.132e-14
   O2              2.066e-14   2.067e-14   -13.685   -13.685     0.000     30.31

------------------------------Saturation indices-------------------------------

  Phase               SI** log IAP   log K(298 K,  65 atm)

  CH4(g)         -117.48   -120.33   -2.84  CH4
  CO2(g)            1.63      0.12   -1.51  CO2	 Pressure  65.1 atm, phi 0.657
  H2(g)           -36.25    -39.39   -3.13  H2
  H2O(g)           -1.49     -0.01    1.48  H2O	 Pressure   0.1 atm, phi 0.354
  O2(g)           -10.76    -13.68   -2.93  O2

**For a gas, SI = log10(fugacity). Fugacity = pressure * phi / 1 atm.
  For ideal gases, phi = 1.

Reaction step 9.

Using solution 1.	pH 7 charge
Using gas phase 6.	
Using reaction 1.	

Reaction 1.	

	  1.038e+00 moles of the following reaction have been added:

	                 Relative
	Reactant            moles

	CO2                  1.00000

	                 Relative
	Element             moles
	C                    1.00000
	O                    2.00000

-----------------------------------Gas phase-----------------------------------

Total pressure: 65.19      atmospheres          (Peng-Robinson calculation)
    Gas volume:   1.00e+00 liters
  Molar volume:   1.26e-01 liters/mole
   P * Vm / RT:  0.33465  (Compressibility Factor Z) 

                                                        Moles in gas
                                            ----------------------------------
Component         log P           P    phi     Initial       Final       Delta

CO2(g)             1.81   6.510e+01  0.657   6.912e+00   7.950e+00   1.039e+00
H2O(g)            -1.00   9.936e-02  0.324   9.655e-03   1.213e-02   2.480e-03

-----------------------------Solution composition------------------------------

	Elements           Molality       Moles

	C                 1.396e+00   1.396e+00

----------------------------Description of solution----------------------------

                                       pH  =   3.103      Charge balance
                                       pe  =  14.961      Adjusted to redox equilibrium
      Specific Conductance (µS/cm,  25°C)  = 289
                          Density (g/cm³)  =   1.01275
                               Volume (L)  =   1.04785
                        Viscosity (mPa s)  =   0.88954
                        Activity of water  =   0.977
                 Ionic strength (mol/kgw)  =   8.134e-04
                       Mass of water (kg)  =   9.998e-01
                 Total alkalinity (eq/kg)  =   1.218e-09
                       Total CO2 (mol/kg)  =   1.396e+00
                         Temperature (°C)  =  25.00
                           Pressure (atm)  = 65.19
                  Electrical balance (eq)  =  -1.217e-09
 Percent error, 100*(Cat-|An|)/(Cat+|An|)  =  -0.00
                               Iterations  =  47
                                  Total H  = 1.109882e+02
                                  Total O  = 5.828556e+01

----------------------------Distribution of species----------------------------

                                               Log       Log       Log    mole V
   Species          Molality    Activity  Molality  Activity     Gamma   cm³/mol

   H+              8.134e-04   7.887e-04    -3.090    -3.103    -0.013      0.00
   OH-             1.371e-11   1.328e-11   -10.863   -10.877    -0.014     -3.87
   H2O             5.551e+01   9.768e-01     1.744    -0.010     0.000     18.02
C(-4)         0.000e+00
   CH4             0.000e+00   0.000e+00  -120.020  -120.019     0.000     35.54
C(4)          1.396e+00
   CO2             1.330e+00   1.330e+00     0.124     0.124     0.000     34.40
   (CO2)2          3.248e-02   3.249e-02    -1.488    -1.488     0.000     68.81
   HCO3-           8.134e-04   7.879e-04    -3.090    -3.104    -0.014     24.79
   CO3-2           5.728e-11   5.044e-11   -10.242   -10.297    -0.055     -3.34
H(0)          9.782e-40
   H2              4.891e-40   4.892e-40   -39.311   -39.311     0.000     28.58
O(0)          2.904e-14
   O2              1.452e-14   1.452e-14   -13.838   -13.838     0.000     30.31

------------------------------Saturation indices-------------------------------

  Phase               SI** log IAP   log K(298 K,  65 atm)

  CH4(g)         -117.18   -120.02   -2.84  CH4
  CO2(g)            1.63      0.12   -1.51  CO2	 Pressure  65.1 atm, phi 0.657
  H2(g)           -36.18    -39.31   -3.13  H2
  H2O(g)           -1.49     -0.01    1.48  H2O	 Pressure   0.1 atm, phi 0.324
  O2(g)           -10.91    -13.84   -2.93  O2

**For a gas, SI = log10(fugacity). Fugacity = pressure * phi / 1 atm.
  For ideal gases, phi = 1.

Reaction step 10.

Using solution 1.	pH 7 charge
Using gas phase 6.	
Using reaction 1.	

Reaction 1.	

	  1.038e+00 moles of the following reaction have been added:

	                 Relative
	Reactant            moles

	CO2                  1.00000

	                 Relative
	Element             moles
	C                    1.00000
	O                    2.00000

-----------------------------------Gas phase-----------------------------------

Total pressure: 65.18      atmospheres          (Peng-Robinson calculation)
    Gas volume:   1.00e+00 liters
  Molar volume:   1.11e-01 liters/mole
   P * Vm / RT:  0.29585  (Compressibility Factor Z) 

                                                        Moles in gas
                                            ----------------------------------
Component         log P           P    phi     Initial       Final       Delta

CO2(g)             1.81   6.507e+01  0.657   7.950e+00   8.990e+00   1.039e+00
H2O(g)            -0.96   1.086e-01  0.296   1.213e-02   1.501e-02   2.873e-03

-----------------------------Solution composition------------------------------

	Elements           Molality       Moles

	C                 1.395e+00   1.395e+00

----------------------------Description of solution----------------------------

                                       pH  =   3.103      Charge balance
                                       pe  =  14.951      Adjusted to redox equilibrium
      Specific Conductance (µS/cm,  25°C)  = 289
                          Density (g/cm³)  =   1.01274
                               Volume (L)  =   1.04777
                        Viscosity (mPa s)  =   0.88954
                        Activity of water  =   0.977
                 Ionic strength (mol/kgw)  =   8.131e-04
                       Mass of water (kg)  =   9.997e-01
                 Total alkalinity (eq/kg)  =   1.218e-09
                       Total CO2 (mol/kg)  =   1.395e+00
                         Temperature (°C)  =  25.00
                           Pressure (atm)  = 65.18
                  Electrical balance (eq)  =  -1.217e-09
 Percent error, 100*(Cat-|An|)/(Cat+|An|)  =  -0.00
                               Iterations  =  47
                                  Total H  = 1.109824e+02
                                  Total O  = 5.828076e+01

----------------------------Distribution of species----------------------------

                                               Log       Log       Log    mole V
   Species          Molality    Activity  Molality  Activity     Gamma   cm³/mol

   H+              8.131e-04   7.885e-04    -3.090    -3.103    -0.013      0.00
   OH-             1.372e-11   1.328e-11   -10.863   -10.877    -0.014     -3.87
   H2O             5.551e+01   9.768e-01     1.744    -0.010     0.000     18.02
C(-4)         0.000e+00
   CH4             0.000e+00   0.000e+00  -119.943  -119.942     0.000     35.54
C(4)          1.395e+00
   CO2             1.329e+00   1.330e+00     0.124     0.124     0.000     34.40
   (CO2)2          3.244e-02   3.245e-02    -1.489    -1.489     0.000     68.81
   HCO3-           8.131e-04   7.877e-04    -3.090    -3.104    -0.014     24.79
   CO3-2           5.728e-11   5.044e-11   -10.242   -10.297    -0.055     -3.34
H(0)          1.023e-39
   H2              5.114e-40   5.115e-40   -39.291   -39.291     0.000     28.58
O(0)          2.657e-14
   O2              1.328e-14   1.329e-14   -13.877   -13.877     0.000     30.31

------------------------------Saturation indices-------------------------------

  Phase               SI** log IAP   log K(298 K,  65 atm)

  CH4(g)         -117.10   -119.94   -2.84  CH4
  CO2(g)            1.63      0.12   -1.51  CO2	 Pressure  65.1 atm, phi 0.657
  H2(g)           -36.16    -39.29   -3.13  H2
  H2O(g)           -1.49     -0.01    1.48  H2O	 Pressure   0.1 atm, phi 0.296
  O2(g)           -10.95    -13.88   -2.93  O2

**For a gas, SI = log10(fugacity). Fugacity = pressure * phi / 1 atm.
  For ideal gases, phi = 1.

Reaction step 11.

Using solution 1.	pH 7 charge
Using gas phase 6.	
Using reaction 1.	

Reaction 1.	

	  1.038e+00 moles of the following reaction have been added:

	                 Relative
	Reactant            moles

	CO2                  1.00000

	                 Relative
	Element             moles
	C                    1.00000
	O                    2.00000

-----------------------------------Gas phase-----------------------------------

Total pressure: 65.16      atmospheres          (Peng-Robinson calculation)
    Gas volume:   1.00e+00 liters
  Molar volume:   9.95e-02 liters/mole
   P * Vm / RT:  0.26506  (Compressibility Factor Z) 

                                                        Moles in gas
                                            ----------------------------------
Component         log P           P    phi     Initial       Final       Delta

CO2(g)             1.81   6.504e+01  0.657   8.990e+00   1.003e+01   1.040e+00
H2O(g)            -0.93   1.188e-01  0.271   1.501e-02   1.832e-02   3.310e-03

-----------------------------Solution composition------------------------------

	Elements           Molality       Moles

	C                 1.393e+00   1.393e+00

----------------------------Description of solution----------------------------

                                       pH  =   3.103      Charge balance
                                       pe  =  14.982      Adjusted to redox equilibrium
      Specific Conductance (µS/cm,  25°C)  = 288
                          Density (g/cm³)  =   1.01273
                               Volume (L)  =   1.04764
                        Viscosity (mPa s)  =   0.88954
                        Activity of water  =   0.977
                 Ionic strength (mol/kgw)  =   8.127e-04
                       Mass of water (kg)  =   9.997e-01
                 Total alkalinity (eq/kg)  =   1.218e-09
                       Total CO2 (mol/kg)  =   1.393e+00
                         Temperature (°C)  =  25.00
                           Pressure (atm)  = 65.16
                  Electrical balance (eq)  =  -1.217e-09
 Percent error, 100*(Cat-|An|)/(Cat+|An|)  =  -0.00
                               Iterations  =  42
                                  Total H  = 1.109758e+02
                                  Total O  = 5.827379e+01

----------------------------Distribution of species----------------------------

                                               Log       Log       Log    mole V
   Species          Molality    Activity  Molality  Activity     Gamma   cm³/mol

   H+              8.126e-04   7.880e-04    -3.090    -3.103    -0.013      0.00
   OH-             1.372e-11   1.329e-11   -10.862   -10.877    -0.014     -3.87
   H2O             5.551e+01   9.768e-01     1.744    -0.010     0.000     18.02
C(-4)         0.000e+00
   CH4             0.000e+00   0.000e+00  -120.189  -120.189     0.000     35.54
C(4)          1.393e+00
   CO2             1.328e+00   1.328e+00     0.123     0.123     0.000     34.40
   (CO2)2          3.237e-02   3.237e-02    -1.490    -1.490     0.000     68.81
   HCO3-           8.127e-04   7.872e-04    -3.090    -3.104    -0.014     24.79
   CO3-2           5.727e-11   5.044e-11   -10.242   -10.297    -0.055     -3.34
H(0)          8.879e-40
   H2              4.440e-40   4.440e-40   -39.353   -39.353     0.000     28.58
O(0)          3.525e-14
   O2              1.763e-14   1.763e-14   -13.754   -13.754     0.000     30.31

------------------------------Saturation indices-------------------------------

  Phase               SI** log IAP   log K(298 K,  65 atm)

  CH4(g)         -117.35   -120.19   -2.84  CH4
  CO2(g)            1.63      0.12   -1.51  CO2	 Pressure  65.0 atm, phi 0.657
  H2(g)           -36.22    -39.35   -3.13  H2
  H2O(g)           -1.49     -0.01    1.48  H2O	 Pressure   0.1 atm, phi 0.271
  O2(g)           -10.83    -13.75   -2.93  O2

**For a gas, SI = log10(fugacity). Fugacity = pressure * phi / 1 atm.
  For ideal gases, phi = 1.

Reaction step 12.

Using solution 1.	pH 7 charge
Using gas phase 6.	
Using reaction 1.	

Reaction 1.	

	  1.038e+00 moles of the following reaction have been added:

	                 Relative
	Reactant            moles

	CO2                  1.00000

	                 Relative
	Element             moles
	C                    1.00000
	O                    2.00000

-----------------------------------Gas phase-----------------------------------

Total pressure: 65.15      atmospheres          (Peng-Robinson calculation)
    Gas volume:   1.00e+00 liters
  Molar volume:   9.01e-02 liters/mole
   P * Vm / RT:  0.24003  (Compressibility Factor Z) 

                                                        Moles in gas
                                            ----------------------------------
Component         log P           P    phi     Initial       Final       Delta

CO2(g)             1.81   6.502e+01  0.656   1.003e+01   1.107e+01   1.041e+00
H2O(g)            -0.89   1.298e-01  0.248   1.832e-02   2.211e-02   3.792e-03

-----------------------------Solution composition------------------------------

	Elements           Molality       Moles

	C                 1.391e+00   1.391e+00

----------------------------Description of solution----------------------------

                                       pH  =   3.104      Charge balance
                                       pe  =  15.053      Adjusted to redox equilibrium
      Specific Conductance (µS/cm,  25°C)  = 288
                          Density (g/cm³)  =   1.01270
                               Volume (L)  =   1.04749
                        Viscosity (mPa s)  =   0.88954
                        Activity of water  =   0.977
                 Ionic strength (mol/kgw)  =   8.120e-04
                       Mass of water (kg)  =   9.996e-01
                 Total alkalinity (eq/kg)  =   1.218e-09
                       Total CO2 (mol/kg)  =   1.391e+00
                         Temperature (°C)  =  25.00
                           Pressure (atm)  = 65.15
                  Electrical balance (eq)  =  -1.217e-09
 Percent error, 100*(Cat-|An|)/(Cat+|An|)  =  -0.00
                               Iterations  =  46
                                  Total H  = 1.109682e+02
                                  Total O  = 5.826513e+01

----------------------------Distribution of species----------------------------

                                               Log       Log       Log    mole V
   Species          Molality    Activity  Molality  Activity     Gamma   cm³/mol

   H+              8.120e-04   7.874e-04    -3.090    -3.104    -0.013      0.00
   OH-             1.374e-11   1.330e-11   -10.862   -10.876    -0.014     -3.87
   H2O             5.551e+01   9.769e-01     1.744    -0.010     0.000     18.02
C(-4)         0.000e+00
   CH4             0.000e+00   0.000e+00  -120.763  -120.763     0.000     35.54
C(4)          1.391e+00
   CO2             1.326e+00   1.326e+00     0.122     0.123     0.000     34.40
   (CO2)2          3.226e-02   3.227e-02    -1.491    -1.491     0.000     68.81
   HCO3-           8.120e-04   7.866e-04    -3.090    -3.104    -0.014     24.79
   CO3-2           5.727e-11   5.044e-11   -10.242   -10.297    -0.055     -3.34
H(0)          6.384e-40
   H2              3.192e-40   3.192e-40   -39.496   -39.496     0.000     28.58
O(0)          6.821e-14
   O2              3.410e-14   3.411e-14   -13.467   -13.467     0.000     30.31

------------------------------Saturation indices-------------------------------

  Phase               SI** log IAP   log K(298 K,  65 atm)

  CH4(g)         -117.92   -120.76   -2.84  CH4
  CO2(g)            1.63      0.12   -1.51  CO2	 Pressure  65.0 atm, phi 0.656
  H2(g)           -36.36    -39.50   -3.13  H2
  H2O(g)           -1.49     -0.01    1.48  H2O	 Pressure   0.1 atm, phi 0.248
  O2(g)           -10.54    -13.47   -2.93  O2

**For a gas, SI = log10(fugacity). Fugacity = pressure * phi / 1 atm.
  For ideal gases, phi = 1.

Reaction step 13.

Using solution 1.	pH 7 charge
Using gas phase 6.	
Using reaction 1.	

Reaction 1.	

	  1.038e+00 moles of the following reaction have been added:

	                 Relative
	Reactant            moles

	CO2                  1.00000

	                 Relative
	Element             moles
	C                    1.00000
	O                    2.00000

-----------------------------------Gas phase-----------------------------------

Total pressure: 65.13      atmospheres          (Peng-Robinson calculation)
    Gas volume:   1.00e+00 liters
  Molar volume:   8.24e-02 liters/mole
   P * Vm / RT:  0.21929  (Compressibility Factor Z) 

                                                        Moles in gas
                                            ----------------------------------
Component         log P           P    phi     Initial       Final       Delta

CO2(g)             1.81   6.498e+01  0.655   1.107e+01   1.211e+01   1.041e+00
H2O(g)            -0.85   1.418e-01  0.227   2.211e-02   2.643e-02   4.318e-03

-----------------------------Solution composition------------------------------

	Elements           Molality       Moles

	C                 1.389e+00   1.388e+00

----------------------------Description of solution----------------------------

                                       pH  =   3.104      Charge balance
                                       pe  =  15.060      Adjusted to redox equilibrium
      Specific Conductance (µS/cm,  25°C)  = 288
                          Density (g/cm³)  =   1.01268
                               Volume (L)  =   1.04733
                        Viscosity (mPa s)  =   0.88954
                        Activity of water  =   0.977
                 Ionic strength (mol/kgw)  =   8.113e-04
                       Mass of water (kg)  =   9.995e-01
                 Total alkalinity (eq/kg)  =   1.218e-09
                       Total CO2 (mol/kg)  =   1.389e+00
                         Temperature (°C)  =  25.00
                           Pressure (atm)  = 65.13
                  Electrical balance (eq)  =  -1.217e-09
 Percent error, 100*(Cat-|An|)/(Cat+|An|)  =  -0.00
                               Iterations  =  45
                                  Total H  = 1.109596e+02
                                  Total O  = 5.825560e+01

----------------------------Distribution of species----------------------------

                                               Log       Log       Log    mole V
   Species          Molality    Activity  Molality  Activity     Gamma   cm³/mol

   H+              8.113e-04   7.867e-04    -3.091    -3.104    -0.013      0.00
   OH-             1.375e-11   1.331e-11   -10.862   -10.876    -0.014     -3.87
   H2O             5.551e+01   9.769e-01     1.744    -0.010     0.000     18.02
C(-4)         0.000e+00
   CH4             0.000e+00   0.000e+00  -120.827  -120.827     0.000     35.54
C(4)          1.389e+00
   CO2             1.323e+00   1.324e+00     0.122     0.122     0.000     34.40
   (CO2)2          3.215e-02   3.216e-02    -1.493    -1.493     0.000     68.81
   HCO3-           8.113e-04   7.859e-04    -3.091    -3.105    -0.014     24.79
   CO3-2           5.726e-11   5.044e-11   -10.242   -10.297    -0.055     -3.34
H(0)          6.154e-40
   H2              3.077e-40   3.078e-40   -39.512   -39.512     0.000     28.58
O(0)          7.339e-14
   O2              3.670e-14   3.670e-14   -13.435   -13.435     0.000     30.31

------------------------------Saturation indices-------------------------------

  Phase               SI** log IAP   log K(298 K,  65 atm)

  CH4(g)         -117.98   -120.83   -2.84  CH4
  CO2(g)            1.63      0.12   -1.51  CO2	 Pressure  65.0 atm, phi 0.655
  H2(g)           -36.38    -39.51   -3.13  H2
  H2O(g)           -1.49     -0.01    1.48  H2O	 Pressure   0.1 atm, phi 0.227
  O2(g)           -10.51    -13.44   -2.93  O2

**For a gas, SI = log10(fugacity). Fugacity = pressure * phi / 1 atm.
  For ideal gases, phi = 1.

Reaction step 14.

Using solution 1.	pH 7 charge
Using gas phase 6.	
Using reaction 1.	

Reaction 1.	

	  1.038e+00 moles of the following reaction have been added:

	                 Relative
	Reactant            moles

	CO2                  1.00000

	                 Relative
	Element             moles
	C                    1.00000
	O                    2.00000

-----------------------------------Gas phase-----------------------------------

Total pressure: 65.11      atmospheres          (Peng-Robinson calculation)
    Gas volume:   1.00e+00 liters
  Molar volume:   7.58e-02 liters/mole
   P * Vm / RT:  0.20184  (Compressibility Factor Z) 

                                                        Moles in gas
                                            ----------------------------------
Component         log P           P    phi     Initial       Final       Delta

CO2(g)             1.81   6.495e+01  0.654   1.211e+01   1.315e+01   1.041e+00
H2O(g)            -0.81   1.546e-01  0.208   2.643e-02   3.131e-02   4.886e-03

-----------------------------Solution composition------------------------------

	Elements           Molality       Moles

	C                 1.386e+00   1.386e+00

----------------------------Description of solution----------------------------

                                       pH  =   3.105      Charge balance
                                       pe  =  15.050      Adjusted to redox equilibrium
      Specific Conductance (µS/cm,  25°C)  = 288
                          Density (g/cm³)  =   1.01266
                               Volume (L)  =   1.04716
                        Viscosity (mPa s)  =   0.88954
                        Activity of water  =   0.977
                 Ionic strength (mol/kgw)  =   8.107e-04
                       Mass of water (kg)  =   9.994e-01
                 Total alkalinity (eq/kg)  =   1.218e-09
                       Total CO2 (mol/kg)  =   1.386e+00
                         Temperature (°C)  =  25.00
                           Pressure (atm)  = 65.11
                  Electrical balance (eq)  =  -1.217e-09
 Percent error, 100*(Cat-|An|)/(Cat+|An|)  =  -0.00
                               Iterations  =  48
                                  Total H  = 1.109498e+02
                                  Total O  = 5.824609e+01

----------------------------Distribution of species----------------------------

                                               Log       Log       Log    mole V
   Species          Molality    Activity  Molality  Activity     Gamma   cm³/mol

   H+              8.107e-04   7.861e-04    -3.091    -3.105    -0.013      0.00
   OH-             1.376e-11   1.332e-11   -10.861   -10.875    -0.014     -3.87
   H2O             5.551e+01   9.770e-01     1.744    -0.010     0.000     18.02
C(-4)         0.000e+00
   CH4             0.000e+00   0.000e+00  -120.744  -120.744     0.000     35.54
C(4)          1.386e+00
   CO2             1.321e+00   1.322e+00     0.121     0.121     0.000     34.40
   (CO2)2          3.206e-02   3.206e-02    -1.494    -1.494     0.000     68.81
   HCO3-           8.107e-04   7.854e-04    -3.091    -3.105    -0.014     24.79
   CO3-2           5.726e-11   5.044e-11   -10.242   -10.297    -0.055     -3.34
H(0)          6.457e-40
   H2              3.228e-40   3.229e-40   -39.491   -39.491     0.000     28.58
O(0)          6.669e-14
   O2              3.334e-14   3.335e-14   -13.477   -13.477     0.000     30.31

------------------------------Saturation indices-------------------------------

  Phase               SI** log IAP   log K(298 K,  65 atm)

  CH4(g)         -117.90   -120.74   -2.84  CH4
  CO2(g)            1.63      0.12   -1.51  CO2	 Pressure  65.0 atm, phi 0.654
  H2(g)           -36.36    -39.49   -3.13  H2
  H2O(g)           -1.49     -0.01    1.48  H2O	 Pressure   0.2 atm, phi 0.208
  O2(g)           -10.55    -13.48   -2.93  O2

**For a gas, SI = log10(fugacity). Fugacity = pressure * phi / 1 atm.
  For ideal gases, phi = 1.

Reaction step 15.

Using solution 1.	pH 7 charge
Using gas phase 6.	
Using reaction 1.	

Reaction 1.	

	  1.038e+00 moles of the following reaction have been added:

	                 Relative
	Reactant            moles

	CO2                  1.00000

	                 Relative
	Element             moles
	C                    1.00000
	O                    2.00000

-----------------------------------Gas phase-----------------------------------

Total pressure: 65.08      atmospheres          (Peng-Robinson calculation)
    Gas volume:   1.00e+00 liters
  Molar volume:   7.03e-02 liters/mole
   P * Vm / RT:  0.18694  (Compressibility Factor Z) 

                                                        Moles in gas
                                            ----------------------------------
Component         log P           P    phi     Initial       Final       Delta

CO2(g)             1.81   6.491e+01  0.654   1.315e+01   1.419e+01   1.040e+00
H2O(g)            -0.77   1.683e-01  0.191   3.131e-02   3.680e-02   5.491e-03

-----------------------------Solution composition------------------------------

	Elements           Molality       Moles

	C                 1.385e+00   1.384e+00

----------------------------Description of solution----------------------------

                                       pH  =   3.105      Charge balance
                                       pe  =  15.036      Adjusted to redox equilibrium
      Specific Conductance (µS/cm,  25°C)  = 288
                          Density (g/cm³)  =   1.01265
                               Volume (L)  =   1.04701
                        Viscosity (mPa s)  =   0.88954
                        Activity of water  =   0.977
                 Ionic strength (mol/kgw)  =   8.103e-04
                       Mass of water (kg)  =   9.993e-01
                 Total alkalinity (eq/kg)  =   1.218e-09
                       Total CO2 (mol/kg)  =   1.385e+00
                         Temperature (°C)  =  25.00
                           Pressure (atm)  = 65.08
                  Electrical balance (eq)  =  -1.217e-09
 Percent error, 100*(Cat-|An|)/(Cat+|An|)  =  -0.00
                               Iterations  =  31
                                  Total H  = 1.109388e+02
                                  Total O  = 5.823752e+01

----------------------------Distribution of species----------------------------

                                               Log       Log       Log    mole V
   Species          Molality    Activity  Molality  Activity     Gamma   cm³/mol

   H+              8.103e-04   7.858e-04    -3.091    -3.105    -0.013      0.00
   OH-             1.376e-11   1.333e-11   -10.861   -10.875    -0.014     -3.87
   H2O             5.551e+01   9.770e-01     1.744    -0.010     0.000     18.02
C(-4)         0.000e+00
   CH4             0.000e+00   0.000e+00  -120.639  -120.639     0.000     35.54
C(4)          1.385e+00
   CO2             1.320e+00   1.320e+00     0.121     0.121     0.000     34.40
   (CO2)2          3.199e-02   3.200e-02    -1.495    -1.495     0.000     68.81
   HCO3-           8.103e-04   7.850e-04    -3.091    -3.105    -0.014     24.79
   CO3-2           5.726e-11   5.043e-11   -10.242   -10.297    -0.055     -3.35
H(0)          6.862e-40
   H2              3.431e-40   3.432e-40   -39.465   -39.465     0.000     28.58
O(0)          5.905e-14
   O2              2.953e-14   2.953e-14   -13.530   -13.530     0.000     30.31

------------------------------Saturation indices-------------------------------

  Phase               SI** log IAP   log K(298 K,  65 atm)

  CH4(g)         -117.80   -120.64   -2.84  CH4
  CO2(g)            1.63      0.12   -1.51  CO2	 Pressure  64.9 atm, phi 0.654
  H2(g)           -36.33    -39.46   -3.13  H2
  H2O(g)           -1.49     -0.01    1.48  H2O	 Pressure   0.2 atm, phi 0.191
  O2(g)           -10.60    -13.53   -2.93  O2

**For a gas, SI = log10(fugacity). Fugacity = pressure * phi / 1 atm.
  For ideal gases, phi = 1.

Reaction step 16.

Using solution 1.	pH 7 charge
Using gas phase 6.	
Using reaction 1.	

Reaction 1.	

	  1.038e+00 moles of the following reaction have been added:

	                 Relative
	Reactant            moles

	CO2                  1.00000

	                 Relative
	Element             moles
	C                    1.00000
	O                    2.00000

-----------------------------------Gas phase-----------------------------------

Total pressure: 67.66      atmospheres          (Peng-Robinson calculation)
    Gas volume:   1.00e+00 liters
  Molar volume:   6.55e-02 liters/mole
   P * Vm / RT:  0.18111  (Compressibility Factor Z) 

                                                        Moles in gas
                                            ----------------------------------
Component         log P           P    phi     Initial       Final       Delta

CO2(g)             1.83   6.747e+01  0.634   1.419e+01   1.523e+01   1.034e+00
H2O(g)            -0.72   1.895e-01  0.170   3.680e-02   4.277e-02   5.962e-03

-----------------------------Solution composition------------------------------

	Elements           Molality       Moles

	C                 1.390e+00   1.389e+00

----------------------------Description of solution----------------------------

                                       pH  =   3.103      Charge balance
                                       pe  =  15.028      Adjusted to redox equilibrium
      Specific Conductance (µS/cm,  25°C)  = 289
                          Density (g/cm³)  =   1.01280
                               Volume (L)  =   1.04694
                        Viscosity (mPa s)  =   0.88951
                        Activity of water  =   0.977
                 Ionic strength (mol/kgw)  =   8.128e-04
                       Mass of water (kg)  =   9.992e-01
                 Total alkalinity (eq/kg)  =   1.218e-09
                       Total CO2 (mol/kg)  =   1.390e+00
                         Temperature (°C)  =  25.00
                           Pressure (atm)  = 67.66
                  Electrical balance (eq)  =  -1.217e-09
 Percent error, 100*(Cat-|An|)/(Cat+|An|)  =  -0.00
                               Iterations  =  35
                                  Total H  = 1.109269e+02
                                  Total O  = 5.824062e+01

----------------------------Distribution of species----------------------------

                                               Log       Log       Log    mole V
   Species          Molality    Activity  Molality  Activity     Gamma   cm³/mol

   H+              8.128e-04   7.881e-04    -3.090    -3.103    -0.013      0.00
   OH-             1.375e-11   1.332e-11   -10.862   -10.876    -0.014     -3.87
   H2O             5.551e+01   9.769e-01     1.744    -0.010     0.000     18.02
C(-4)         0.000e+00
   CH4             0.000e+00   0.000e+00  -120.561  -120.561     0.000     35.55
C(4)          1.390e+00
   CO2             1.324e+00   1.325e+00     0.122     0.122     0.000     34.40
   (CO2)2          3.220e-02   3.221e-02    -1.492    -1.492     0.000     68.80
   HCO3-           8.128e-04   7.873e-04    -3.090    -3.104    -0.014     24.80
   CO3-2           5.743e-11   5.058e-11   -10.241   -10.296    -0.055     -3.32
H(0)          7.158e-40
   H2              3.579e-40   3.580e-40   -39.446   -39.446     0.000     28.57
O(0)          5.396e-14
   O2              2.698e-14   2.699e-14   -13.569   -13.569     0.000     30.30

------------------------------Saturation indices-------------------------------

  Phase               SI** log IAP   log K(298 K,  68 atm)

  CH4(g)         -117.72   -120.56   -2.84  CH4
  CO2(g)            1.63      0.12   -1.51  CO2	 Pressure  67.5 atm, phi 0.634
  H2(g)           -36.31    -39.45   -3.13  H2
  H2O(g)           -1.49     -0.01    1.48  H2O	 Pressure   0.2 atm, phi 0.170
  O2(g)           -10.64    -13.57   -2.93  O2

**For a gas, SI = log10(fugacity). Fugacity = pressure * phi / 1 atm.
  For ideal gases, phi = 1.

Reaction step 17.

Using solution 1.	pH 7 charge
Using gas phase 6.	
Using reaction 1.	

Reaction 1.	

	  1.038e+00 moles of the following reaction have been added:

	                 Relative
	Reactant            moles

	CO2                  1.00000

	                 Relative
	Element             moles
	C                    1.00000
	O                    2.00000

-----------------------------------Gas phase-----------------------------------

Total pressure: 76.35      atmospheres          (Peng-Robinson calculation)
    Gas volume:   1.00e+00 liters
  Molar volume:   6.14e-02 liters/mole
   P * Vm / RT:  0.19145  (Compressibility Factor Z) 

                                                        Moles in gas
                                            ----------------------------------
Component         log P           P    phi     Initial       Final       Delta

CO2(g)             1.88   7.612e+01  0.574   1.523e+01   1.625e+01   1.024e+00
H2O(g)            -0.64   2.295e-01  0.141   4.277e-02   4.899e-02   6.218e-03

-----------------------------Solution composition------------------------------

	Elements           Molality       Moles

	C                 1.405e+00   1.403e+00

----------------------------Description of solution----------------------------

                                       pH  =   3.099      Charge balance
                                       pe  =  15.028      Adjusted to redox equilibrium
      Specific Conductance (µS/cm,  25°C)  = 292
                          Density (g/cm³)  =   1.01331
                               Volume (L)  =   1.04695
                        Viscosity (mPa s)  =   0.88941
                        Activity of water  =   0.977
                 Ionic strength (mol/kgw)  =   8.209e-04
                       Mass of water (kg)  =   9.991e-01
                 Total alkalinity (eq/kg)  =   1.218e-09
                       Total CO2 (mol/kg)  =   1.405e+00
                         Temperature (°C)  =  25.00
                           Pressure (atm)  = 76.35
                  Electrical balance (eq)  =  -1.217e-09
 Percent error, 100*(Cat-|An|)/(Cat+|An|)  =  -0.00
                               Iterations  =  42
                                  Total H  = 1.109145e+02
                                  Total O  = 5.826415e+01

----------------------------Distribution of species----------------------------

                                               Log       Log       Log    mole V
   Species          Molality    Activity  Molality  Activity     Gamma   cm³/mol

   H+              8.209e-04   7.959e-04    -3.086    -3.099    -0.013      0.00
   OH-             1.372e-11   1.328e-11   -10.863   -10.877    -0.014     -3.83
   H2O             5.551e+01   9.767e-01     1.744    -0.010     0.000     18.01
C(-4)         0.000e+00
   CH4             0.000e+00   0.000e+00  -120.527  -120.527     0.000     35.56
C(4)          1.405e+00
   CO2             1.338e+00   1.338e+00     0.127     0.127     0.000     34.40
   (CO2)2          3.287e-02   3.288e-02    -1.483    -1.483     0.000     68.79
   HCO3-           8.209e-04   7.951e-04    -3.086    -3.100    -0.014     24.83
   CO3-2           5.803e-11   5.108e-11   -10.236   -10.292    -0.055     -3.24
H(0)          7.229e-40
   H2              3.615e-40   3.615e-40   -39.442   -39.442     0.000     28.57
O(0)          5.192e-14
   O2              2.596e-14   2.597e-14   -13.586   -13.586     0.000     30.29

------------------------------Saturation indices-------------------------------

  Phase               SI** log IAP   log K(298 K,  76 atm)

  CH4(g)         -117.68   -120.53   -2.85  CH4
  CO2(g)            1.64      0.13   -1.51  CO2	 Pressure  76.1 atm, phi 0.574
  H2(g)           -36.30    -39.44   -3.14  H2
  H2O(g)           -1.49     -0.01    1.48  H2O	 Pressure   0.2 atm, phi 0.141
  O2(g)           -10.65    -13.59   -2.93  O2

**For a gas, SI = log10(fugacity). Fugacity = pressure * phi / 1 atm.
  For ideal gases, phi = 1.

Reaction step 18.

Using solution 1.	pH 7 charge
Using gas phase 6.	
Using reaction 1.	

Reaction 1.	

	  1.038e+00 moles of the following reaction have been added:

	                 Relative
	Reactant            moles

	CO2                  1.00000

	                 Relative
	Element             moles
	C                    1.00000
	O                    2.00000

-----------------------------------Gas phase-----------------------------------

Total pressure: 89.50      atmospheres          (Peng-Robinson calculation)
    Gas volume:   1.00e+00 liters
  Molar volume:   5.77e-02 liters/mole
   P * Vm / RT:  0.21115  (Compressibility Factor Z) 

                                                        Moles in gas
                                            ----------------------------------
Component         log P           P    phi     Initial       Final       Delta

CO2(g)             1.95   8.921e+01  0.506   1.625e+01   1.727e+01   1.019e+00
H2O(g)            -0.54   2.871e-01  0.114   4.899e-02   5.557e-02   6.581e-03

-----------------------------Solution composition------------------------------

	Elements           Molality       Moles

	C                 1.425e+00   1.423e+00

----------------------------Description of solution----------------------------

                                       pH  =   3.093      Charge balance
                                       pe  =  15.050      Adjusted to redox equilibrium
      Specific Conductance (µS/cm,  25°C)  = 296
                          Density (g/cm³)  =   1.01407
                               Volume (L)  =   1.04691
                        Viscosity (mPa s)  =   0.88926
                        Activity of water  =   0.976
                 Ionic strength (mol/kgw)  =   8.326e-04
                       Mass of water (kg)  =   9.990e-01
                 Total alkalinity (eq/kg)  =   1.212e-09
                       Total CO2 (mol/kg)  =   1.425e+00
                         Temperature (°C)  =  25.00
                           Pressure (atm)  = 89.50
                  Electrical balance (eq)  =  -1.211e-09
 Percent error, 100*(Cat-|An|)/(Cat+|An|)  =  -0.00
                               Iterations  =  41
                                  Total H  = 1.109013e+02
                                  Total O  = 5.829727e+01

----------------------------Distribution of species----------------------------

                                               Log       Log       Log    mole V
   Species          Molality    Activity  Molality  Activity     Gamma   cm³/mol

   H+              8.326e-04   8.071e-04    -3.080    -3.093    -0.014      0.00
   OH-             1.369e-11   1.325e-11   -10.864   -10.878    -0.014     -3.79
   H2O             5.551e+01   9.763e-01     1.744    -0.010     0.000     18.00
C(-4)         0.000e+00
   CH4             0.000e+00   0.000e+00  -120.661  -120.661     0.000     35.58
C(4)          1.425e+00
   CO2             1.356e+00   1.357e+00     0.132     0.132     0.000     34.39
   (CO2)2          3.377e-02   3.378e-02    -1.471    -1.471     0.000     68.78
   HCO3-           8.326e-04   8.063e-04    -3.080    -3.094    -0.014     24.87
   CO3-2           5.894e-11   5.184e-11   -10.230   -10.285    -0.056     -3.12
H(0)          6.602e-40
   H2              3.301e-40   3.301e-40   -39.481   -39.481     0.000     28.56
O(0)          6.053e-14
   O2              3.027e-14   3.027e-14   -13.519   -13.519     0.000     30.27

------------------------------Saturation indices-------------------------------

  Phase               SI** log IAP   log K(298 K,  89 atm)

  CH4(g)         -117.80   -120.66   -2.86  CH4
  CO2(g)            1.65      0.13   -1.52  CO2	 Pressure  89.2 atm, phi 0.506
  H2(g)           -36.34    -39.48   -3.15  H2
  H2O(g)           -1.48     -0.01    1.47  H2O	 Pressure   0.3 atm, phi 0.114
  O2(g)           -10.58    -13.52   -2.94  O2

**For a gas, SI = log10(fugacity). Fugacity = pressure * phi / 1 atm.
  For ideal gases, phi = 1.

Reaction step 19.

Using solution 1.	pH 7 charge
Using gas phase 6.	
Using reaction 1.	

Reaction 1.	

	  1.038e+00 moles of the following reaction have been added:

	                 Relative
	Reactant            moles

	CO2                  1.00000

	                 Relative
	Element             moles
	C                    1.00000
	O                    2.00000

-----------------------------------Gas phase-----------------------------------

Total pressure: 108.24      atmospheres          (Peng-Robinson calculation)
    Gas volume:   1.00e+00 liters
  Molar volume:   5.45e-02 liters/mole
   P * Vm / RT:  0.24115  (Compressibility Factor Z) 

                                                        Moles in gas
                                            ----------------------------------
Component         log P           P    phi     Initial       Final       Delta

CO2(g)             2.03   1.079e+02  0.437   1.727e+01   1.828e+01   1.014e+00
H2O(g)            -0.43   3.684e-01  0.090   5.557e-02   6.244e-02   6.869e-03

-----------------------------Solution composition------------------------------

	Elements           Molality       Moles

	C                 1.450e+00   1.448e+00

----------------------------Description of solution----------------------------

                                       pH  =   3.085      Charge balance
                                       pe  =  15.065      Adjusted to redox equilibrium
      Specific Conductance (µS/cm,  25°C)  = 301
                          Density (g/cm³)  =   1.01510
                               Volume (L)  =   1.04680
                        Viscosity (mPa s)  =   0.88906
                        Activity of water  =   0.976
                 Ionic strength (mol/kgw)  =   8.483e-04
                       Mass of water (kg)  =   9.989e-01
                 Total alkalinity (eq/kg)  =   1.212e-09
                       Total CO2 (mol/kg)  =   1.450e+00
                         Temperature (°C)  =  25.00
                           Pressure (atm)  = 108.24
                  Electrical balance (eq)  =  -1.211e-09
 Percent error, 100*(Cat-|An|)/(Cat+|An|)  =  -0.00
                               Iterations  =  58
                                  Total H  = 1.108876e+02
                                  Total O  = 5.834022e+01

----------------------------Distribution of species----------------------------

                                               Log       Log       Log    mole V
   Species          Molality    Activity  Molality  Activity     Gamma   cm³/mol

   H+              8.483e-04   8.222e-04    -3.071    -3.085    -0.014      0.00
   OH-             1.366e-11   1.321e-11   -10.865   -10.879    -0.014     -3.72
   H2O             5.551e+01   9.759e-01     1.744    -0.011     0.000     17.98
C(-4)         0.000e+00
   CH4             0.000e+00   0.000e+00  -120.718  -120.718     0.000     35.60
C(4)          1.450e+00
   CO2             1.379e+00   1.379e+00     0.140     0.140     0.000     34.38
   (CO2)2          3.492e-02   3.492e-02    -1.457    -1.457     0.000     68.76
   HCO3-           8.483e-04   8.213e-04    -3.071    -3.085    -0.014     24.93
   CO3-2           6.025e-11   5.294e-11   -10.220   -10.276    -0.056     -2.95
H(0)          6.268e-40
   H2              3.134e-40   3.135e-40   -39.504   -39.504     0.000     28.56
O(0)          6.451e-14
   O2              3.225e-14   3.226e-14   -13.491   -13.491     0.000     30.25

------------------------------Saturation indices-------------------------------

  Phase               SI** log IAP   log K(298 K, 108 atm)

  CH4(g)         -117.85   -120.72   -2.87  CH4
  CO2(g)            1.67      0.14   -1.53  CO2	 Pressure 107.9 atm, phi 0.437
  H2(g)           -36.35    -39.50   -3.16  H2
  H2O(g)           -1.48     -0.01    1.47  H2O	 Pressure   0.4 atm, phi 0.090
  O2(g)           -10.54    -13.49   -2.95  O2

**For a gas, SI = log10(fugacity). Fugacity = pressure * phi / 1 atm.
  For ideal gases, phi = 1.

Reaction step 20.

Using solution 1.	pH 7 charge
Using gas phase 6.	
Using reaction 1.	

Reaction 1.	

	  1.038e+00 moles of the following reaction have been added:

[...]
                                       pe  =   1.912      Adjusted to redox equilibrium
      Specific Conductance (µS/cm, 100°C)  = 584
                          Density (g/cm³)  =   0.99250
                               Volume (L)  =   1.06991
                        Viscosity (mPa s)  =   0.29588
                        Activity of water  =   0.975
                 Ionic strength (mol/kgw)  =   9.220e-04
                       Mass of water (kg)  =   9.917e-01
                 Total alkalinity (eq/kg)  =   5.738e-06
                       Total CO2 (mol/kg)  =   1.607e+00
                         Temperature (°C)  = 100.00
                           Pressure (atm)  = 530.35
                  Electrical balance (eq)  =  -5.690e-06
 Percent error, 100*(Cat-|An|)/(Cat+|An|)  =  -0.31
                               Iterations  =  37 (138 overall)
                                  Total H  = 1.100951e+02
                                  Total O  = 5.823577e+01

----------------------------Distribution of species----------------------------

                                               Log       Log       Log    mole V
   Species          Molality    Activity  Molality  Activity     Gamma   cm³/mol

   H+              9.192e-04   8.857e-04    -3.037    -3.053    -0.016      0.00
   OH-             1.041e-09   1.001e-09    -8.983    -9.000    -0.017     -7.86
   H2O             5.551e+01   9.753e-01     1.744    -0.011     0.000     18.35
C(-4)         4.110e-25
   CH4             4.110e-25   4.111e-25   -24.386   -24.386     0.000     40.49
C(4)          1.607e+00
   CO2             1.295e+00   1.295e+00     0.112     0.112     0.000     37.56
   (CO2)2          1.557e-01   1.557e-01    -0.808    -0.808     0.000     75.12
   HCO3-           9.249e-04   8.901e-04    -3.034    -3.051    -0.017     26.36
   CO3-2           1.361e-10   1.167e-10    -9.866    -9.933    -0.067     -2.99
H(0)          5.612e-14
   H2              2.806e-14   2.806e-14   -13.552   -13.552     0.000     28.35
O(0)          0.000e+00
   O2              0.000e+00   0.000e+00   -46.352   -46.352     0.000     32.41

------------------------------Saturation indices-------------------------------

  Phase               SI** log IAP   log K(373 K, 530 atm)

  CH4(g)          -21.08    -24.39   -3.31  CH4
  CO2(g)            2.37      0.11   -2.26  CO2	 Pressure 518.1 atm, phi 0.456
  H2(g)           -10.24    -13.55   -3.31  H2
  H2O(g)            0.12     -0.01   -0.13  H2O	 Pressure  12.2 atm, phi 0.108
  O2(g)           -42.99    -46.35   -3.36  O2

**For a gas, SI = log10(fugacity). Fugacity = pressure * phi / 1 atm.
  For ideal gases, phi = 1.

Reaction step 22.

WARNING: Numerical method failed, switching to numerical derivatives.
WARNING: Maximum iterations exceeded, 100

WARNING: Numerical method failed with this set of convergence parameters.

WARNING: Trying smaller step size, pe step size 10, 5 ... 

Using solution 1.	pH 7 charge
Using gas phase 6.	
Using reaction 1.	

Reaction 1.	

	  1.000e+00 moles of the following reaction have been added:

	                 Relative
	Reactant            moles

	CO2                  1.00000

	                 Relative
	Element             moles
	C                    1.00000
	O                    2.00000

-----------------------------------Gas phase-----------------------------------

Total pressure: 604.71      atmospheres          (Peng-Robinson calculation)
    Gas volume:   1.00e+00 liters
  Molar volume:   4.80e-02 liters/mole
   P * Vm / RT:  0.94841  (Compressibility Factor Z) 

                                                        Moles in gas
                                            ----------------------------------
Component         log P           P    phi     Initial       Final       Delta

CO2(g)             2.77   5.908e+02  0.452   1.941e+01   2.034e+01   9.365e-01
H2O(g)             1.14   1.395e+01  0.099   4.587e-01   4.804e-01   2.170e-02

-----------------------------Solution composition------------------------------

	Elements           Molality       Moles

	C                 1.672e+00   1.658e+00

----------------------------Description of solution----------------------------

                                       pH  =   3.032      Charge balance
                                       pe  =   1.967      Adjusted to redox equilibrium
      Specific Conductance (µS/cm, 100°C)  = 610
                          Density (g/cm³)  =   0.99605
                               Volume (L)  =   1.06852
                        Viscosity (mPa s)  =   0.29782
                        Activity of water  =   0.974
                 Ionic strength (mol/kgw)  =   9.668e-04
                       Mass of water (kg)  =   9.913e-01
                 Total alkalinity (eq/kg)  =   5.740e-06
                       Total CO2 (mol/kg)  =   1.672e+00
                         Temperature (°C)  = 100.00
                           Pressure (atm)  = 604.71
                  Electrical balance (eq)  =  -5.690e-06
 Percent error, 100*(Cat-|An|)/(Cat+|An|)  =  -0.30
                               Iterations  =  44 (145 overall)
                                  Total H  = 1.100517e+02
                                  Total O  = 5.834106e+01

----------------------------Distribution of species----------------------------

                                               Log       Log       Log    mole V
   Species          Molality    Activity  Molality  Activity     Gamma   cm³/mol

   H+              9.639e-04   9.283e-04    -3.016    -3.032    -0.016      0.00
   OH-             1.061e-09   1.020e-09    -8.974    -8.991    -0.017     -8.07
   H2O             5.551e+01   9.744e-01     1.744    -0.011     0.000     18.29
C(-4)         2.068e-25
   CH4             2.068e-25   2.069e-25   -24.684   -24.684     0.000     40.42
C(4)          1.672e+00
   CO2             1.339e+00   1.339e+00     0.127     0.127     0.000     37.41
   (CO2)2          1.663e-01   1.663e-01    -0.779    -0.779     0.000     74.81
   HCO3-           9.697e-04   9.325e-04    -3.013    -3.030    -0.017     26.67
   CO3-2           1.455e-10   1.244e-10    -9.837    -9.905    -0.068     -2.30
H(0)          4.481e-14
   H2              2.241e-14   2.241e-14   -13.650   -13.650     0.000     28.33
O(0)          0.000e+00
   O2              0.000e+00   0.000e+00   -46.212   -46.212     0.000     32.23

------------------------------Saturation indices-------------------------------

  Phase               SI** log IAP   log K(373 K, 605 atm)

  CH4(g)          -21.33    -24.68   -3.35  CH4
  CO2(g)            2.43      0.13   -2.30  CO2	 Pressure 590.8 atm, phi 0.452
  H2(g)           -10.31    -13.65   -3.34  H2
  H2O(g)            0.14     -0.01   -0.15  H2O	 Pressure  14.0 atm, phi 0.099
  O2(g)           -42.82    -46.21   -3.39  O2

**For a gas, SI = log10(fugacity). Fugacity = pressure * phi / 1 atm.
  For ideal gases, phi = 1.

Reaction step 23.

WARNING: Numerical method failed, switching to numerical derivatives.
WARNING: Maximum iterations exceeded, 100

WARNING: Numerical method failed with this set of convergence parameters.

WARNING: Trying smaller step size, pe step size 10, 5 ... 

Using solution 1.	pH 7 charge
Using gas phase 6.	
Using reaction 1.	

Reaction 1.	

	  1.000e+00 moles of the following reaction have been added:

	                 Relative
	Reactant            moles

	CO2                  1.00000

	                 Relative
	Element             moles
	C                    1.00000
	O                    2.00000

-----------------------------------Gas phase-----------------------------------

Total pressure: 692.70      atmospheres          (Peng-Robinson calculation)
    Gas volume:   1.00e+00 liters
  Molar volume:   4.59e-02 liters/mole
   P * Vm / RT:  1.03894  (Compressibility Factor Z) 

                                                        Moles in gas
                                            ----------------------------------
Component         log P           P    phi     Initial       Final       Delta

CO2(g)             2.83   6.768e+02  0.452   2.034e+01   2.128e+01   9.328e-01
H2O(g)             1.20   1.588e+01  0.091   4.804e-01   4.991e-01   1.875e-02

-----------------------------Solution composition------------------------------

	Elements           Molality       Moles

	C                 1.740e+00   1.725e+00

----------------------------Description of solution----------------------------

                                       pH  =   3.010      Charge balance
                                       pe  =   1.838      Adjusted to redox equilibrium
      Specific Conductance (µS/cm, 100°C)  = 639
                          Density (g/cm³)  =   1.00012
                               Volume (L)  =   1.06679
                        Viscosity (mPa s)  =   0.30011
                        Activity of water  =   0.973
                 Ionic strength (mol/kgw)  =   1.018e-03
                       Mass of water (kg)  =   9.910e-01
                 Total alkalinity (eq/kg)  =   5.742e-06
                       Total CO2 (mol/kg)  =   1.740e+00
                         Temperature (°C)  = 100.00
                           Pressure (atm)  = 692.70
                  Electrical balance (eq)  =  -5.690e-06
 Percent error, 100*(Cat-|An|)/(Cat+|An|)  =  -0.28
                               Iterations  =  41 (142 overall)
                                  Total H  = 1.100142e+02
                                  Total O  = 5.845662e+01

----------------------------Distribution of species----------------------------

                                               Log       Log       Log    mole V
   Species          Molality    Activity  Molality  Activity     Gamma   cm³/mol

   H+              1.015e-03   9.772e-04    -2.993    -3.010    -0.017      0.00
   OH-             1.092e-09   1.048e-09    -8.962    -8.980    -0.018     -8.32
   H2O             5.551e+01   9.734e-01     1.744    -0.012     0.000     18.23
C(-4)         3.104e-24
   CH4             3.104e-24   3.105e-24   -23.508   -23.508     0.000     40.34
C(4)          1.740e+00
   CO2             1.384e+00   1.384e+00     0.141     0.141     0.000     37.23
   (CO2)2          1.778e-01   1.778e-01    -0.750    -0.750     0.000     74.46
   HCO3-           1.021e-03   9.813e-04    -2.991    -3.008    -0.017     27.02
   CO3-2           1.570e-10   1.339e-10    -9.804    -9.873    -0.069     -1.53
H(0)          8.296e-14
   H2              4.148e-14   4.149e-14   -13.382   -13.382     0.000     28.30
O(0)          0.000e+00
   O2              0.000e+00   0.000e+00   -46.812   -46.812     0.000     32.04

------------------------------Saturation indices-------------------------------

  Phase               SI** log IAP   log K(373 K, 693 atm)

  CH4(g)          -20.11    -23.51   -3.40  CH4
  CO2(g)            2.49      0.14   -2.34  CO2	 Pressure 676.8 atm, phi 0.452
  H2(g)           -10.00    -13.38   -3.38  H2
  H2O(g)            0.16     -0.01   -0.17  H2O	 Pressure  15.9 atm, phi 0.091
  O2(g)           -43.38    -46.81   -3.43  O2

**For a gas, SI = log10(fugacity). Fugacity = pressure * phi / 1 atm.
  For ideal gases, phi = 1.

Reaction step 24.

WARNING: Numerical method failed, switching to numerical derivatives.
WARNING: Maximum iterations exceeded, 100

WARNING: Numerical method failed with this set of convergence parameters.

WARNING: Trying smaller step size, pe step size 10, 5 ... 

Using solution 1.	pH 7 charge
Using gas phase 6.	
Using reaction 1.	

Reaction 1.	

	  1.000e+00 moles of the following reaction have been added:

	                 Relative
	Reactant            moles

	CO2                  1.00000

	                 Relative
	Element             moles
	C                    1.00000
	O                    2.00000

-----------------------------------Gas phase-----------------------------------

Total pressure: 797.06      atmospheres          (Peng-Robinson calculation)
    Gas volume:   1.00e+00 liters
  Molar volume:   4.40e-02 liters/mole
   P * Vm / RT:  1.14576  (Compressibility Factor Z) 

                                                        Moles in gas
                                            ----------------------------------
Component         log P           P    phi     Initial       Final       Delta

CO2(g)             2.89   7.790e+02  0.459   2.128e+01   2.220e+01   9.292e-01
H2O(g)             1.26   1.804e+01  0.085   4.991e-01   5.142e-01   1.511e-02

-----------------------------Solution composition------------------------------

	Elements           Molality       Moles

	C                 1.812e+00   1.796e+00

----------------------------Description of solution----------------------------

                                       pH  =   2.986      Charge balance
                                       pe  =   1.876      Adjusted to redox equilibrium
      Specific Conductance (µS/cm, 100°C)  = 673
                          Density (g/cm³)  =   1.00480
                               Volume (L)  =   1.06465
                        Viscosity (mPa s)  =   0.30281
                        Activity of water  =   0.972
                 Ionic strength (mol/kgw)  =   1.078e-03
                       Mass of water (kg)  =   9.907e-01
                 Total alkalinity (eq/kg)  =   5.744e-06
                       Total CO2 (mol/kg)  =   1.812e+00
                         Temperature (°C)  = 100.00
                           Pressure (atm)  = 797.06
                  Electrical balance (eq)  =  -5.690e-06
 Percent error, 100*(Cat-|An|)/(Cat+|An|)  =  -0.27
                               Iterations  =  43 (144 overall)
                                  Total H  = 1.099840e+02
                                  Total O  = 5.858320e+01

----------------------------Distribution of species----------------------------

                                               Log       Log       Log    mole V
   Species          Molality    Activity  Molality  Activity     Gamma   cm³/mol

   H+              1.075e-03   1.034e-03    -2.969    -2.986    -0.017      0.00
   OH-             1.135e-09   1.089e-09    -8.945    -8.963    -0.018     -8.59
   H2O             5.551e+01   9.724e-01     1.744    -0.012     0.000     18.15
C(-4)         2.194e-24
   CH4             2.194e-24   2.194e-24   -23.659   -23.659     0.000     40.25
C(4)          1.812e+00
   CO2             1.431e+00   1.431e+00     0.156     0.156     0.000     37.03
   (CO2)2          1.901e-01   1.902e-01    -0.721    -0.721     0.000     74.06
   HCO3-           1.081e-03   1.038e-03    -2.966    -2.984    -0.018     27.42
   CO3-2           1.715e-10   1.457e-10    -9.766    -9.836    -0.071     -0.67
H(0)          7.084e-14
   H2              3.542e-14   3.543e-14   -13.451   -13.451     0.000     28.27
O(0)          0.000e+00
   O2              0.000e+00   0.000e+00   -46.752   -46.751     0.000     31.83

------------------------------Saturation indices-------------------------------

  Phase               SI** log IAP   log K(373 K, 797 atm)

  CH4(g)          -20.20    -23.66   -3.46  CH4
  CO2(g)            2.55      0.16   -2.40  CO2	 Pressure 779.0 atm, phi 0.459
  H2(g)           -10.03    -13.45   -3.42  H2
  H2O(g)            0.19     -0.01   -0.20  H2O	 Pressure  18.0 atm, phi 0.085
  O2(g)           -43.28    -46.75   -3.47  O2

**For a gas, SI = log10(fugacity). Fugacity = pressure * phi / 1 atm.
  For ideal gases, phi = 1.

Reaction step 25.

WARNING: Numerical method failed, switching to numerical derivatives.
WARNING: Maximum iterations exceeded, 100

WARNING: Numerical method failed with this set of convergence parameters.

WARNING: Trying smaller step size, pe step size 10, 5 ... 

Using solution 1.	pH 7 charge
Using gas phase 6.	
Using reaction 1.	

Reaction 1.	

	  1.000e+00 moles of the following reaction have been added:

	                 Relative
	Reactant            moles

	CO2                  1.00000

	                 Relative
	Element             moles
	C                    1.00000
	O                    2.00000

-----------------------------------Gas phase-----------------------------------

Total pressure: 921.15      atmospheres          (Peng-Robinson calculation)
    Gas volume:   1.00e+00 liters
  Molar volume:   4.23e-02 liters/mole
   P * Vm / RT:  1.27174  (Compressibility Factor Z) 

                                                        Moles in gas
                                            ----------------------------------
Component         log P           P    phi     Initial       Final       Delta

CO2(g)             2.95   9.007e+02  0.474   2.220e+01   2.313e+01   9.255e-01
H2O(g)             1.31   2.044e+01  0.081   5.142e-01   5.250e-01   1.075e-02

-----------------------------Solution composition------------------------------

	Elements           Molality       Moles

	C                 1.888e+00   1.870e+00

----------------------------Description of solution----------------------------

                                       pH  =   2.959      Charge balance
                                       pe  =   1.869      Adjusted to redox equilibrium
      Specific Conductance (µS/cm, 100°C)  = 712
                          Density (g/cm³)  =   1.01017
                               Volume (L)  =   1.06205
                        Viscosity (mPa s)  =   0.30601
                        Activity of water  =   0.971
                 Ionic strength (mol/kgw)  =   1.147e-03
                       Mass of water (kg)  =   9.905e-01
                 Total alkalinity (eq/kg)  =   5.745e-06
                       Total CO2 (mol/kg)  =   1.888e+00
                         Temperature (°C)  = 100.00
                           Pressure (atm)  = 921.15
                  Electrical balance (eq)  =  -5.690e-06
 Percent error, 100*(Cat-|An|)/(Cat+|An|)  =  -0.25
                               Iterations  =  47 (148 overall)
                                  Total H  = 1.099625e+02
                                  Total O  = 5.872142e+01

----------------------------Distribution of species----------------------------

                                               Log       Log       Log    mole V
   Species          Molality    Activity  Molality  Activity     Gamma   cm³/mol

   H+              1.144e-03   1.099e-03    -2.941    -2.959    -0.017      0.00
   OH-             1.197e-09   1.147e-09    -8.922    -8.940    -0.018     -8.89
   H2O             5.551e+01   9.713e-01     1.744    -0.013     0.000     18.07
C(-4)         3.585e-24
   CH4             3.585e-24   3.586e-24   -23.446   -23.445     0.000     40.15
C(4)          1.888e+00
   CO2             1.480e+00   1.480e+00     0.170     0.170     0.000     36.81
   (CO2)2          2.033e-01   2.034e-01    -0.692    -0.692     0.000     73.62
   HCO3-           1.150e-03   1.103e-03    -2.939    -2.957    -0.018     27.86
   CO3-2           1.898e-10   1.607e-10    -9.722    -9.794    -0.072      0.29
H(0)          7.372e-14
   H2              3.686e-14   3.687e-14   -13.433   -13.433     0.000     28.24
O(0)          0.000e+00
   O2              0.000e+00   0.000e+00   -46.877   -46.877     0.000     31.59

------------------------------Saturation indices-------------------------------

  Phase               SI** log IAP   log K(373 K, 921 atm)

  CH4(g)          -19.92    -23.45   -3.53  CH4
  CO2(g)            2.63      0.17   -2.46  CO2	 Pressure 900.7 atm, phi 0.474
  H2(g)            -9.96    -13.43   -3.47  H2
  H2O(g)            0.22     -0.01   -0.23  H2O	 Pressure  20.4 atm, phi 0.081
  O2(g)           -43.35    -46.88   -3.53  O2

**For a gas, SI = log10(fugacity). Fugacity = pressure * phi / 1 atm.
  For ideal gases, phi = 1.

------------------
End of simulation.
------------------

------------------------------------
Reading input data for simulation 7.
------------------------------------

