   Input file: CO2_conc_PR_GP
  Output file: CO2_conc_PR_GP.out
Database file: ../database/vreeqc.dat

------------------
Reading data base.
------------------

	KNOBS
	SOLUTION_MASTER_SPECIES
	SOLUTION_SPECIES
	PHASES
	EXCHANGE_MASTER_SPECIES
	EXCHANGE_SPECIES
	SURFACE_MASTER_SPECIES
	SURFACE_SPECIES
	RATES
	END
------------------------------------
Reading input data for simulation 1.
------------------------------------

	database ../database/vreeqc.dat
	END
------------------
End of simulation.
------------------

------------------------------------
Reading input data for simulation 2.
------------------------------------

	SOLUTION 1 pH 7 charge
	GAS_PHASE 6
	    fixed_volume
	    CO2(g) 0
	USER_GRAPH
	 -plot_csv_file co2_25_50_75.dat
	 -axis_titles "Pressure / atm" "CO2 / (mol/kgw)"
	 -axis_scale x_axis 0 500
	 -axis_scale y_axis 0 2
	 -init true
	 10 x = PR_P("CO2(g)")
	 20 graph_x x
	 30 graph_y tot("C(4)")
	 -end
	REACTION
	 CO2 1
	 27 in 26
	END
-------------------------------------------
Beginning of initial solution calculations.
-------------------------------------------

Initial solution 1.	pH 7 charge

-----------------------------Solution composition------------------------------

	Elements           Molality       Moles

	Pure water     

----------------------------Description of solution----------------------------

                                       pH  =   7.000    
                                       pe  =   4.000    
       Specific Conductance (uS/cm, 25 oC) = 0
                          Density (g/cm3)  =   0.99709
                        Activity of water  =   1.000
                           Ionic strength  =   1.001e-07
                       Mass of water (kg)  =   1.000e+00
                 Total alkalinity (eq/kg)  =   1.082e-10
                    Total carbon (mol/kg)  =   0.000e+00
                       Total CO2 (mol/kg)  =   0.000e+00
                      Temperature (deg C)  =  25.00
                  Electrical balance (eq)  =  -1.082e-10
 Percent error, 100*(Cat-|An|)/(Cat+|An|)  =  -0.05
                               Iterations  =   0
                                  Total H  = 1.110124e+02
                                  Total O  = 5.550622e+01

----------------------------Distribution of species----------------------------

                                            Log       Log         Log     mole V
   Species          Molality    Activity  Molality  Activity     Gamma   cm3/mol

   OH-             1.002e-07   1.001e-07    -6.999    -6.999    -0.000     -3.14
   H+              1.001e-07   1.000e-07    -7.000    -7.000    -0.000      0.00
   H2O             5.551e+01   1.000e+00     1.744     0.000     0.000     18.07
H(0)          1.416e-25
   H2              7.079e-26   7.079e-26   -25.150   -25.150     0.000     20.00
O(0)          0.000e+00
   O2              0.000e+00   0.000e+00   -42.080   -42.080     0.000     35.00

------------------------------Saturation indices-------------------------------

	Phase               SI   log IAP   log K(298 K,   1 atm)

	H2(g)           -22.05    -25.15   -3.10  H2
	H2O(g)           -1.50      0.00    1.50  H2O
	O2(g)           -39.19    -42.08   -2.89  O2


-----------------------------------------
Beginning of batch-reaction calculations.
-----------------------------------------

Reaction step 1.

Using solution 1.	pH 7 charge
Using gas phase 6.	
Using reaction 1.	

Reaction 1.	

	  1.038e+00 moles of the following reaction have been added:

	                 Relative
	Reactant            moles

	CO2                  1.00000

	                 Relative
	Element             moles
	C                    1.00000
	O                    2.00000

-----------------------------------Gas phase-----------------------------------

Total pressure: 13.75      atmospheres          (Peng-Robinson calculation)
    Gas volume:   1.00e+00 liters
  Molar volume:   1.64e+00 liters/mole
   P * Vm / RT:  0.92061  (Compressibility Factor Z) 

                                                        Moles in gas
                                            ----------------------------------
Component         log P           P    phi     Initial       Final       Delta

CO2(g)             1.14   1.375e+01  0.925   0.000e+00   6.105e-01   6.105e-01

-----------------------------Solution composition------------------------------

	Elements           Molality       Moles

	C                 4.280e-01   4.280e-01

----------------------------Description of solution----------------------------

                                       pH  =   3.360      Charge balance
                                       pe  =  14.501      Adjusted to redox equilibrium
       Specific Conductance (uS/cm, 25 oC) = 173
                          Density (g/cm3)  =   0.99769
                        Activity of water  =   0.993
                           Ionic strength  =   4.470e-04
                       Mass of water (kg)  =   1.000e+00
                 Total alkalinity (eq/kg)  =   1.082e-10
                       Total CO2 (mol/kg)  =   4.280e-01
                      Temperature (deg C)  =  25.00
                           Pressure (atm)  = 13.75
                  Electrical balance (eq)  =  -1.082e-10
 Percent error, 100*(Cat-|An|)/(Cat+|An|)  =  -0.00
                               Iterations  =  37
                                  Total H  = 1.110124e+02
                                  Total O  = 5.636220e+01

----------------------------Distribution of species----------------------------

                                            Log       Log         Log     mole V
   Species          Molality    Activity  Molality  Activity     Gamma   cm3/mol

   H+              4.470e-04   4.367e-04    -3.350    -3.360    -0.010      0.00
   OH-             2.357e-11   2.301e-11   -10.628   -10.638    -0.011     -3.13
   H2O             5.551e+01   9.927e-01     1.744    -0.003     0.000     18.06
C(-4)         0.000e+00
   CH4             0.000e+00   0.000e+00  -118.873  -118.873     0.000     33.09
C(4)          4.280e-01
   CO2             4.275e-01   4.276e-01    -0.369    -0.369     0.000     24.67
   HCO3-           4.470e-04   4.365e-04    -3.350    -3.360    -0.010     24.32
   CO3-2           5.233e-11   4.756e-11   -10.281   -10.323    -0.042     -3.74
H(0)          2.654e-39
   H2              1.327e-39   1.327e-39   -38.877   -38.877     0.000     20.00
O(0)          4.571e-15
   O2              2.285e-15   2.286e-15   -14.641   -14.641     0.000     35.00

------------------------------Saturation indices-------------------------------

	Phase               SI   log IAP   log K(298 K,  14 atm)

	CH4(g)         -116.04   -118.87   -2.83  CH4
	CO2(g)            1.09     -0.37   -1.46  CO2	 Pressure  13.8 atm, phi 0.925.
	H2(g)           -35.78    -38.88   -3.10  H2
	H2O(g)           -1.50     -0.00    1.50  H2O
	O2(g)           -11.74    -14.64   -2.90  O2


Reaction step 2.

Using solution 1.	pH 7 charge
Using gas phase 6.	
Using reaction 1.	

Reaction 1.	

	  2.077e+00 moles of the following reaction have been added:

	                 Relative
	Reactant            moles

	CO2                  1.00000

	                 Relative
	Element             moles
	C                    1.00000
	O                    2.00000

-----------------------------------Gas phase-----------------------------------

Total pressure: 26.89      atmospheres          (Peng-Robinson calculation)
    Gas volume:   1.00e+00 liters
  Molar volume:   7.62e-01 liters/mole
   P * Vm / RT:  0.83699  (Compressibility Factor Z) 

                                                        Moles in gas
                                            ----------------------------------
Component         log P           P    phi     Initial       Final       Delta

CO2(g)             1.43   2.689e+01  0.856   0.000e+00   1.313e+00   1.313e+00

-----------------------------Solution composition------------------------------

	Elements           Molality       Moles

	C                 7.639e-01   7.639e-01

----------------------------Description of solution----------------------------

                                       pH  =   3.233      Charge balance
                                       pe  =  14.569      Adjusted to redox equilibrium
       Specific Conductance (uS/cm, 25 oC) = 232
                          Density (g/cm3)  =   0.99830
                        Activity of water  =   0.987
                           Ionic strength  =   6.007e-04
                       Mass of water (kg)  =   1.000e+00
                 Total alkalinity (eq/kg)  =   1.082e-10
                       Total CO2 (mol/kg)  =   7.639e-01
                      Temperature (deg C)  =  25.00
                           Pressure (atm)  = 26.88
                  Electrical balance (eq)  =  -1.082e-10
 Percent error, 100*(Cat-|An|)/(Cat+|An|)  =  -0.00
                               Iterations  =  48
                                  Total H  = 1.110124e+02
                                  Total O  = 5.703399e+01

----------------------------Distribution of species----------------------------

                                            Log       Log         Log     mole V
   Species          Molality    Activity  Molality  Activity     Gamma   cm3/mol

   H+              6.007e-04   5.848e-04    -3.221    -3.233    -0.012      0.00
   OH-             1.777e-11   1.728e-11   -10.750   -10.762    -0.012     -3.13
   H2O             5.551e+01   9.870e-01     1.744    -0.006     0.000     18.05
C(-4)         0.000e+00
   CH4             0.000e+00   0.000e+00  -118.151  -118.151     0.000     33.09
C(4)          7.639e-01
   CO2             7.633e-01   7.634e-01    -0.117    -0.117     0.000     24.79
   HCO3-           6.007e-04   5.844e-04    -3.221    -3.233    -0.012     24.32
   CO3-2           5.390e-11   4.827e-11   -10.268   -10.316    -0.048     -3.73
H(0)          3.452e-39
   H2              1.726e-39   1.726e-39   -38.763   -38.763     0.000     20.00
O(0)          2.616e-15
   O2              1.308e-15   1.308e-15   -14.883   -14.883     0.000     35.00

------------------------------Saturation indices-------------------------------

	Phase               SI   log IAP   log K(298 K,  27 atm)

	CH4(g)         -115.33   -118.15   -2.82  CH4
	CO2(g)            1.34     -0.12   -1.46  CO2	 Pressure  26.9 atm, phi 0.856.
	H2(g)           -35.66    -38.76   -3.10  H2
	H2O(g)           -1.50     -0.01    1.49  H2O
	O2(g)           -11.97    -14.88   -2.91  O2


Reaction step 3.

Using solution 1.	pH 7 charge
Using gas phase 6.	
Using reaction 1.	

Reaction 1.	

	  3.115e+00 moles of the following reaction have been added:

	                 Relative
	Reactant            moles

	CO2                  1.00000

	                 Relative
	Element             moles
	C                    1.00000
	O                    2.00000

-----------------------------------Gas phase-----------------------------------

Total pressure: 38.72      atmospheres          (Peng-Robinson calculation)
    Gas volume:   1.00e+00 liters
  Molar volume:   4.75e-01 liters/mole
   P * Vm / RT:  0.75149  (Compressibility Factor Z) 

                                                        Moles in gas
                                            ----------------------------------
Component         log P           P    phi     Initial       Final       Delta

CO2(g)             1.59   3.872e+01  0.795   0.000e+00   2.106e+00   2.106e+00

-----------------------------Solution composition------------------------------

	Elements           Molality       Moles

	C                 1.009e+00   1.009e+00

----------------------------Description of solution----------------------------

                                       pH  =   3.171      Charge balance
                                       pe  =  14.690      Adjusted to redox equilibrium
       Specific Conductance (uS/cm, 25 oC) = 268
                          Density (g/cm3)  =   0.99885
                        Activity of water  =   0.983
                           Ionic strength  =   6.936e-04
                       Mass of water (kg)  =   1.000e+00
                 Total alkalinity (eq/kg)  =   1.082e-10
                       Total CO2 (mol/kg)  =   1.009e+00
                      Temperature (deg C)  =  25.00
                           Pressure (atm)  = 38.72
                  Electrical balance (eq)  =  -1.082e-10
 Percent error, 100*(Cat-|An|)/(Cat+|An|)  =  -0.00
                               Iterations  =  45
                                  Total H  = 1.110124e+02
                                  Total O  = 5.752501e+01

----------------------------Distribution of species----------------------------

                                            Log       Log         Log     mole V
   Species          Molality    Activity  Molality  Activity     Gamma   cm3/mol

   H+              6.936e-04   6.740e-04    -3.159    -3.171    -0.012      0.00
   OH-             1.554e-11   1.508e-11   -10.809   -10.822    -0.013     -3.13
   H2O             5.551e+01   9.828e-01     1.744    -0.008     0.000     18.04
C(-4)         0.000e+00
   CH4             0.000e+00   0.000e+00  -118.510  -118.510     0.000     33.09
C(4)          1.009e+00
   CO2             1.009e+00   1.009e+00     0.004     0.004     0.000     24.90
   HCO3-           6.936e-04   6.734e-04    -3.159    -3.172    -0.013     24.32
   CO3-2           5.506e-11   4.893e-11   -10.259   -10.310    -0.051     -3.73
H(0)          2.601e-39
   H2              1.300e-39   1.301e-39   -38.886   -38.886     0.000     20.00
O(0)          4.483e-15
   O2              2.241e-15   2.242e-15   -14.649   -14.649     0.000     35.00

------------------------------Saturation indices-------------------------------

	Phase               SI   log IAP   log K(298 K,  39 atm)

	CH4(g)         -115.71   -118.51   -2.80  CH4
	CO2(g)            1.46      0.00   -1.45  CO2	 Pressure  38.7 atm, phi 0.795.
	H2(g)           -35.78    -38.89   -3.10  H2
	H2O(g)           -1.50     -0.01    1.49  H2O
	O2(g)           -11.73    -14.65   -2.92  O2


Reaction step 4.

WARNING: Numerical method failed, switching to numerical derivatives.
WARNING: Maximum iterations exceeded, 100

WARNING: Numerical method failed with this set of convergence parameters.

WARNING: Trying smaller step size, pe step size 10, 5 ... 

Using solution 1.	pH 7 charge
Using gas phase 6.	
Using reaction 1.	

Reaction 1.	

	  4.154e+00 moles of the following reaction have been added:

	                 Relative
	Reactant            moles

	CO2                  1.00000

	                 Relative
	Element             moles
	C                    1.00000
	O                    2.00000

-----------------------------------Gas phase-----------------------------------

Total pressure: 48.62      atmospheres          (Peng-Robinson calculation)
    Gas volume:   1.00e+00 liters
  Molar volume:   3.36e-01 liters/mole
   P * Vm / RT:  0.66702  (Compressibility Factor Z) 

                                                        Moles in gas
                                            ----------------------------------
Component         log P           P    phi     Initial       Final       Delta

CO2(g)             1.69   4.862e+01  0.745   0.000e+00   2.979e+00   2.979e+00

-----------------------------Solution composition------------------------------

	Elements           Molality       Moles

	C                 1.175e+00   1.175e+00

----------------------------Description of solution----------------------------

                                       pH  =   3.137      Charge balance
                                       pe  =  15.234      Adjusted to redox equilibrium
       Specific Conductance (uS/cm, 25 oC) = 290
                          Density (g/cm3)  =   0.99931
                        Activity of water  =   0.980
                           Ionic strength  =   7.509e-04
                       Mass of water (kg)  =   1.000e+00
                 Total alkalinity (eq/kg)  =   1.094e-10
                       Total CO2 (mol/kg)  =   1.175e+00
                      Temperature (deg C)  =  25.00
                           Pressure (atm)  = 48.62
                  Electrical balance (eq)  =  -1.094e-10
 Percent error, 100*(Cat-|An|)/(Cat+|An|)  =  -0.00
                               Iterations  =  34
                                  Total H  = 1.110124e+02
                                  Total O  = 5.785587e+01

----------------------------Distribution of species----------------------------

                                            Log       Log         Log     mole V
   Species          Molality    Activity  Molality  Activity     Gamma   cm3/mol

   H+              7.509e-04   7.289e-04    -3.124    -3.137    -0.013      0.00
   OH-             1.447e-11   1.403e-11   -10.840   -10.853    -0.014     -3.13
   H2O             5.551e+01   9.800e-01     1.744    -0.009     0.000     18.03
C(-4)         0.000e+00
   CH4             0.000e+00   0.000e+00  -122.533  -122.533     0.000     33.09
C(4)          1.175e+00
   CO2             1.174e+00   1.174e+00     0.070     0.070     0.000     24.99
   HCO3-           7.509e-04   7.282e-04    -3.124    -3.138    -0.013     24.32
   CO3-2           5.594e-11   4.948e-11   -10.252   -10.306    -0.053     -3.73
H(0)          2.458e-40
   H2              1.229e-40   1.229e-40   -39.910   -39.910     0.000     20.00
O(0)          4.910e-13
   O2              2.455e-13   2.456e-13   -12.610   -12.610     0.000     35.00

------------------------------Saturation indices-------------------------------

	Phase               SI   log IAP   log K(298 K,  49 atm)

	CH4(g)         -119.74   -122.53   -2.79  CH4
	CO2(g)            1.52      0.07   -1.45  CO2	 Pressure  48.6 atm, phi 0.745.
	H2(g)           -36.81    -39.91   -3.10  H2
	H2O(g)           -1.50     -0.01    1.49  H2O
	O2(g)            -9.69    -12.61   -2.92  O2


Reaction step 5.

Using solution 1.	pH 7 charge
Using gas phase 6.	
Using reaction 1.	

Reaction 1.	

	  5.192e+00 moles of the following reaction have been added:

	                 Relative
	Reactant            moles

	CO2                  1.00000

	                 Relative
	Element             moles
	C                    1.00000
	O                    2.00000

-----------------------------------Gas phase-----------------------------------

Total pressure: 56.18      atmospheres          (Peng-Robinson calculation)
    Gas volume:   1.00e+00 liters
  Molar volume:   2.55e-01 liters/mole
   P * Vm / RT:  0.58636  (Compressibility Factor Z) 

                                                        Moles in gas
                                            ----------------------------------
Component         log P           P    phi     Initial       Final       Delta

CO2(g)             1.75   5.618e+01  0.706   0.000e+00   3.916e+00   3.916e+00

-----------------------------Solution composition------------------------------

	Elements           Molality       Moles

	C                 1.277e+00   1.277e+00

----------------------------Description of solution----------------------------

                                       pH  =   3.118      Charge balance
                                       pe  =   2.447      Adjusted to redox equilibrium
       Specific Conductance (uS/cm, 25 oC) = 303
                          Density (g/cm3)  =   0.99966
                        Activity of water  =   0.978
                           Ionic strength  =   7.849e-04
                       Mass of water (kg)  =   1.000e+00
                 Total alkalinity (eq/kg)  =   1.083e-10
                       Total CO2 (mol/kg)  =   1.277e+00
                      Temperature (deg C)  =  25.00
                           Pressure (atm)  = 56.18
                  Electrical balance (eq)  =  -1.083e-10
 Percent error, 100*(Cat-|An|)/(Cat+|An|)  =  -0.00
                               Iterations  =  26
                                  Total H  = 1.110124e+02
                                  Total O  = 5.805936e+01

----------------------------Distribution of species----------------------------

                                            Log       Log         Log     mole V
   Species          Molality    Activity  Molality  Activity     Gamma   cm3/mol

   H+              7.849e-04   7.614e-04    -3.105    -3.118    -0.013      0.00
   OH-             1.393e-11   1.349e-11   -10.856   -10.870    -0.014     -3.13
   H2O             5.551e+01   9.783e-01     1.744    -0.010     0.000     18.02
C(-4)         8.910e-21
   CH4             8.910e-21   8.911e-21   -20.050   -20.050     0.000     33.09
C(4)          1.277e+00
   CO2             1.276e+00   1.276e+00     0.106     0.106     0.000     25.06
   HCO3-           7.849e-04   7.607e-04    -3.105    -3.119    -0.014     24.32
   CO3-2           5.657e-11   4.991e-11   -10.247   -10.302    -0.054     -3.73
H(0)          1.002e-14
   H2              5.010e-15   5.011e-15   -14.300   -14.300     0.000     20.00
O(0)          0.000e+00
   O2              0.000e+00   0.000e+00   -63.837   -63.837     0.000     35.00

------------------------------Saturation indices-------------------------------

	Phase               SI   log IAP   log K(298 K,  56 atm)

	CH4(g)          -17.26    -20.05   -2.79  CH4
	CO2(g)            1.55      0.11   -1.45  CO2	 Pressure  56.2 atm, phi 0.706.
	H2(g)           -11.20    -14.30   -3.10  H2
	H2O(g)           -1.49     -0.01    1.49  H2O
	O2(g)           -60.91    -63.84   -2.93  O2


Reaction step 6.

Using solution 1.	pH 7 charge
Using gas phase 6.	
Using reaction 1.	

Reaction 1.	

	  6.231e+00 moles of the following reaction have been added:

	                 Relative
	Reactant            moles

	CO2                  1.00000

	                 Relative
	Element             moles
	C                    1.00000
	O                    2.00000

-----------------------------------Gas phase-----------------------------------

Total pressure: 61.31      atmospheres          (Peng-Robinson calculation)
    Gas volume:   1.00e+00 liters
  Molar volume:   2.04e-01 liters/mole
   P * Vm / RT:  0.51163  (Compressibility Factor Z) 

                                                        Moles in gas
                                            ----------------------------------
Component         log P           P    phi     Initial       Final       Delta

CO2(g)             1.79   6.131e+01  0.679   0.000e+00   4.898e+00   4.898e+00

-----------------------------Solution composition------------------------------

	Elements           Molality       Moles

	C                 1.333e+00   1.333e+00

----------------------------Description of solution----------------------------

                                       pH  =   3.108      Charge balance
                                       pe  =  15.554      Adjusted to redox equilibrium
       Specific Conductance (uS/cm, 25 oC) = 310
                          Density (g/cm3)  =   0.99989
                        Activity of water  =   0.977
                           Ionic strength  =   8.034e-04
                       Mass of water (kg)  =   1.000e+00
                 Total alkalinity (eq/kg)  =   1.083e-10
                       Total CO2 (mol/kg)  =   1.333e+00
                      Temperature (deg C)  =  25.00
                           Pressure (atm)  = 61.31
                  Electrical balance (eq)  =  -1.083e-10
 Percent error, 100*(Cat-|An|)/(Cat+|An|)  =  -0.00
                               Iterations  =  55
                                  Total H  = 1.110124e+02
                                  Total O  = 5.817132e+01

----------------------------Distribution of species----------------------------

                                            Log       Log         Log     mole V
   Species          Molality    Activity  Molality  Activity     Gamma   cm3/mol

   H+              8.034e-04   7.791e-04    -3.095    -3.108    -0.013      0.00
   OH-             1.366e-11   1.323e-11   -10.864   -10.878    -0.014     -3.13
   H2O             5.551e+01   9.773e-01     1.744    -0.010     0.000     18.02
C(-4)         0.000e+00
   CH4             0.000e+00   0.000e+00  -124.810  -124.810     0.000     33.09
C(4)          1.333e+00
   CO2             1.332e+00   1.332e+00     0.124     0.125     0.000     25.10
   HCO3-           8.034e-04   7.784e-04    -3.095    -3.109    -0.014     24.32
   CO3-2           5.698e-11   5.021e-11   -10.244   -10.299    -0.055     -3.73
H(0)          0.000e+00
   H2              0.000e+00   0.000e+00   -40.496   -40.496     0.000     20.00
O(0)          7.095e-12
   O2              3.548e-12   3.548e-12   -11.450   -11.450     0.000     35.00

------------------------------Saturation indices-------------------------------

	Phase               SI   log IAP   log K(298 K,  61 atm)

	CH4(g)         -122.03   -124.81   -2.78  CH4
	CO2(g)            1.57      0.12   -1.44  CO2	 Pressure  61.3 atm, phi 0.679.
	H2(g)           -37.39    -40.50   -3.10  H2
	H2O(g)           -1.49     -0.01    1.48  H2O
	O2(g)            -8.52    -11.45   -2.93  O2


Reaction step 7.

Using solution 1.	pH 7 charge
Using gas phase 6.	
Using reaction 1.	

Reaction 1.	

	  7.269e+00 moles of the following reaction have been added:

	                 Relative
	Reactant            moles

	CO2                  1.00000

	                 Relative
	Element             moles
	C                    1.00000
	O                    2.00000

-----------------------------------Gas phase-----------------------------------

Total pressure: 64.22      atmospheres          (Peng-Robinson calculation)
    Gas volume:   1.00e+00 liters
  Molar volume:   1.69e-01 liters/mole
   P * Vm / RT:  0.44411  (Compressibility Factor Z) 

                                                        Moles in gas
                                            ----------------------------------
Component         log P           P    phi     Initial       Final       Delta

CO2(g)             1.81   6.422e+01  0.663   0.000e+00   5.911e+00   5.911e+00

-----------------------------Solution composition------------------------------

	Elements           Molality       Moles

	C                 1.358e+00   1.358e+00

----------------------------Description of solution----------------------------

                                       pH  =   3.104      Charge balance
                                       pe  =  15.950      Adjusted to redox equilibrium
       Specific Conductance (uS/cm, 25 oC) = 314
                          Density (g/cm3)  =   1.00003
                        Activity of water  =   0.977
                           Ionic strength  =   8.121e-04
                       Mass of water (kg)  =   1.000e+00
                 Total alkalinity (eq/kg)  =   1.084e-10
                       Total CO2 (mol/kg)  =   1.358e+00
                      Temperature (deg C)  =  25.00
                           Pressure (atm)  = 64.22
                  Electrical balance (eq)  =  -1.084e-10
 Percent error, 100*(Cat-|An|)/(Cat+|An|)  =  -0.00
                               Iterations  =  63
                                  Total H  = 1.110124e+02
                                  Total O  = 5.822315e+01

----------------------------Distribution of species----------------------------

                                            Log       Log         Log     mole V
   Species          Molality    Activity  Molality  Activity     Gamma   cm3/mol

   H+              8.121e-04   7.874e-04    -3.090    -3.104    -0.013      0.00
   OH-             1.355e-11   1.312e-11   -10.868   -10.882    -0.014     -3.13
   H2O             5.551e+01   9.769e-01     1.744    -0.010     0.000     18.02
C(-4)         0.000e+00
   CH4             0.000e+00   0.000e+00  -127.936  -127.936     0.000     33.09
C(4)          1.358e+00
   CO2             1.358e+00   1.358e+00     0.133     0.133     0.000     25.13
   HCO3-           8.121e-04   7.866e-04    -3.090    -3.104    -0.014     24.32
   CO3-2           5.721e-11   5.037e-11   -10.243   -10.298    -0.055     -3.73
H(0)          0.000e+00
   H2              0.000e+00   0.000e+00   -41.280   -41.280     0.000     20.00
O(0)          2.611e-10
   O2              1.306e-10   1.306e-10    -9.884    -9.884     0.000     35.00

------------------------------Saturation indices-------------------------------

	Phase               SI   log IAP   log K(298 K,  64 atm)

	CH4(g)         -125.16   -127.94   -2.78  CH4
	CO2(g)            1.58      0.13   -1.44  CO2	 Pressure  64.2 atm, phi 0.663.
	H2(g)           -38.18    -41.28   -3.10  H2
	H2O(g)           -1.49     -0.01    1.48  H2O
	O2(g)            -6.95     -9.88   -2.93  O2


Reaction step 8.

Using solution 1.	pH 7 charge
Using gas phase 6.	
Using reaction 1.	

Reaction 1.	

	  8.308e+00 moles of the following reaction have been added:

	                 Relative
	Reactant            moles

	CO2                  1.00000

	                 Relative
	Element             moles
	C                    1.00000
	O                    2.00000

-----------------------------------Gas phase-----------------------------------

Total pressure: 65.27      atmospheres          (Peng-Robinson calculation)
    Gas volume:   1.00e+00 liters
  Molar volume:   1.44e-01 liters/mole
   P * Vm / RT:  0.38435  (Compressibility Factor Z) 

                                                        Moles in gas
                                            ----------------------------------
Component         log P           P    phi     Initial       Final       Delta

CO2(g)             1.81   6.527e+01  0.657   0.000e+00   6.941e+00   6.941e+00

-----------------------------Solution composition------------------------------

	Elements           Molality       Moles

	C                 1.366e+00   1.366e+00

----------------------------Description of solution----------------------------

                                       pH  =   3.102      Charge balance
                                       pe  =  15.503      Adjusted to redox equilibrium
       Specific Conductance (uS/cm, 25 oC) = 315
                          Density (g/cm3)  =   1.00008
                        Activity of water  =   0.977
                           Ionic strength  =   8.147e-04
                       Mass of water (kg)  =   1.000e+00
                 Total alkalinity (eq/kg)  =   1.083e-10
                       Total CO2 (mol/kg)  =   1.366e+00
                      Temperature (deg C)  =  25.00
                           Pressure (atm)  = 65.27
                  Electrical balance (eq)  =  -1.083e-10
 Percent error, 100*(Cat-|An|)/(Cat+|An|)  =  -0.00
                               Iterations  =  30
                                  Total H  = 1.110124e+02
                                  Total O  = 5.823876e+01

----------------------------Distribution of species----------------------------

                                            Log       Log         Log     mole V
   Species          Molality    Activity  Molality  Activity     Gamma   cm3/mol

   H+              8.147e-04   7.900e-04    -3.089    -3.102    -0.013      0.00
   OH-             1.352e-11   1.309e-11   -10.869   -10.883    -0.014     -3.13
   H2O             5.551e+01   9.768e-01     1.744    -0.010     0.000     18.02
C(-4)         0.000e+00
   CH4             0.000e+00   0.000e+00  -124.349  -124.349     0.000     33.09
C(4)          1.366e+00
   CO2             1.365e+00   1.366e+00     0.135     0.135     0.000     25.14
   HCO3-           8.147e-04   7.892e-04    -3.089    -3.103    -0.014     24.32
   CO3-2           5.729e-11   5.043e-11   -10.242   -10.297    -0.055     -3.73
H(0)          0.000e+00
   H2              0.000e+00   0.000e+00   -40.384   -40.384     0.000     20.00
O(0)          4.207e-12
   O2              2.103e-12   2.104e-12   -11.677   -11.677     0.000     35.00

------------------------------Saturation indices-------------------------------

	Phase               SI   log IAP   log K(298 K,  65 atm)

	CH4(g)         -121.57   -124.35   -2.78  CH4
	CO2(g)            1.58      0.14   -1.44  CO2	 Pressure  65.3 atm, phi 0.657.
	H2(g)           -37.28    -40.38   -3.10  H2
	H2O(g)           -1.49     -0.01    1.48  H2O
	O2(g)            -8.74    -11.68   -2.93  O2


Reaction step 9.

WARNING: Maximum iterations exceeded, 100

WARNING: Numerical method failed with this set of convergence parameters.

WARNING: Trying smaller step size, pe step size 10, 5 ... 

Using solution 1.	pH 7 charge
Using gas phase 6.	
Using reaction 1.	

Reaction 1.	

	  9.346e+00 moles of the following reaction have been added:

	                 Relative
	Reactant            moles

	CO2                  1.00000

	                 Relative
	Element             moles
	C                    1.00000
	O                    2.00000

-----------------------------------Gas phase-----------------------------------

Total pressure: 65.30      atmospheres          (Peng-Robinson calculation)
    Gas volume:   1.00e+00 liters
  Molar volume:   1.25e-01 liters/mole
   P * Vm / RT:  0.33448  (Compressibility Factor Z) 

                                                        Moles in gas
                                            ----------------------------------
Component         log P           P    phi     Initial       Final       Delta

CO2(g)             1.81   6.530e+01  0.656   0.000e+00   7.980e+00   7.980e+00

-----------------------------Solution composition------------------------------

	Elements           Molality       Moles

	C                 1.366e+00   1.366e+00

----------------------------Description of solution----------------------------

                                       pH  =   3.102      Charge balance
                                       pe  =  16.300      Adjusted to redox equilibrium
       Specific Conductance (uS/cm, 25 oC) = 315
                          Density (g/cm3)  =   1.00008
                        Activity of water  =   0.977
                           Ionic strength  =   8.148e-04
                       Mass of water (kg)  =   1.000e+00
                 Total alkalinity (eq/kg)  =   1.082e-10
                       Total CO2 (mol/kg)  =   1.366e+00
                      Temperature (deg C)  =  25.00
                           Pressure (atm)  = 65.30
                  Electrical balance (eq)  =  -1.082e-10
 Percent error, 100*(Cat-|An|)/(Cat+|An|)  =  -0.00
                               Iterations  =  63
                                  Total H  = 1.110124e+02
                                  Total O  = 5.823893e+01

----------------------------Distribution of species----------------------------

                                            Log       Log         Log     mole V
   Species          Molality    Activity  Molality  Activity     Gamma   cm3/mol

   H+              8.148e-04   7.900e-04    -3.089    -3.102    -0.013      0.00
   OH-             1.352e-11   1.308e-11   -10.869   -10.883    -0.014     -3.13
   H2O             5.551e+01   9.768e-01     1.744    -0.010     0.000     18.02
C(-4)         0.000e+00
   CH4             0.000e+00   0.000e+00  -130.721  -130.721     0.000     33.09
C(4)          1.366e+00
   CO2             1.366e+00   1.366e+00     0.135     0.135     0.000     25.14
   HCO3-           8.148e-04   7.892e-04    -3.089    -3.103    -0.014     24.32
   CO3-2           5.729e-11   5.043e-11   -10.242   -10.297    -0.055     -3.73
H(0)          0.000e+00
   H2              0.000e+00   0.000e+00   -41.977   -41.977     0.000     20.00
O(0)          6.461e-09
   O2              3.230e-09   3.231e-09    -8.491    -8.491     0.000     35.00

------------------------------Saturation indices-------------------------------

	Phase               SI   log IAP   log K(298 K,  65 atm)

	CH4(g)         -127.94   -130.72   -2.78  CH4
	CO2(g)            1.58      0.14   -1.44  CO2	 Pressure  65.3 atm, phi 0.656.
	H2(g)           -38.88    -41.98   -3.10  H2
	H2O(g)           -1.49     -0.01    1.48  H2O
	O2(g)            -5.56     -8.49   -2.93  O2


Reaction step 10.

Using solution 1.	pH 7 charge
Using gas phase 6.	
Using reaction 1.	

Reaction 1.	

	  1.038e+01 moles of the following reaction have been added:

	                 Relative
	Reactant            moles

	CO2                  1.00000

	                 Relative
	Element             moles
	C                    1.00000
	O                    2.00000

-----------------------------------Gas phase-----------------------------------

Total pressure: 65.30      atmospheres          (Peng-Robinson calculation)
    Gas volume:   1.00e+00 liters
  Molar volume:   1.11e-01 liters/mole
   P * Vm / RT:  0.29594  (Compressibility Factor Z) 

                                                        Moles in gas
                                            ----------------------------------
Component         log P           P    phi     Initial       Final       Delta

CO2(g)             1.81   6.530e+01  0.656   0.000e+00   9.019e+00   9.019e+00

-----------------------------Solution composition------------------------------

	Elements           Molality       Moles

	C                 1.366e+00   1.366e+00

----------------------------Description of solution----------------------------

                                       pH  =   3.102      Charge balance
                                       pe  =  15.377      Adjusted to redox equilibrium
       Specific Conductance (uS/cm, 25 oC) = 315
                          Density (g/cm3)  =   1.00008
                        Activity of water  =   0.977
                           Ionic strength  =   8.145e-04
                       Mass of water (kg)  =   1.000e+00
                 Total alkalinity (eq/kg)  =   1.082e-10
                       Total CO2 (mol/kg)  =   1.366e+00
                      Temperature (deg C)  =  25.00
                           Pressure (atm)  = 65.30
                  Electrical balance (eq)  =  -1.082e-10
 Percent error, 100*(Cat-|An|)/(Cat+|An|)  =  -0.00
                               Iterations  =  36
                                  Total H  = 1.110124e+02
                                  Total O  = 5.823748e+01

----------------------------Distribution of species----------------------------

                                            Log       Log         Log     mole V
   Species          Molality    Activity  Molality  Activity     Gamma   cm3/mol

   H+              8.145e-04   7.898e-04    -3.089    -3.102    -0.013      0.00
   OH-             1.352e-11   1.309e-11   -10.869   -10.883    -0.014     -3.13
   H2O             5.551e+01   9.768e-01     1.744    -0.010     0.000     18.02
C(-4)         0.000e+00
   CH4             0.000e+00   0.000e+00  -123.343  -123.343     0.000     33.09
C(4)          1.366e+00
   CO2             1.365e+00   1.365e+00     0.135     0.135     0.000     25.14
   HCO3-           8.145e-04   7.890e-04    -3.089    -3.103    -0.014     24.32
   CO3-2           5.729e-11   5.043e-11   -10.242   -10.297    -0.055     -3.73
H(0)          0.000e+00
   H2              0.000e+00   0.000e+00   -40.132   -40.132     0.000     20.00
O(0)          1.321e-12
   O2              6.604e-13   6.605e-13   -12.180   -12.180     0.000     35.00

------------------------------Saturation indices-------------------------------

	Phase               SI   log IAP   log K(298 K,  65 atm)

	CH4(g)         -120.57   -123.34   -2.78  CH4
	CO2(g)            1.58      0.14   -1.44  CO2	 Pressure  65.3 atm, phi 0.656.
	H2(g)           -37.03    -40.13   -3.10  H2
	H2O(g)           -1.49     -0.01    1.48  H2O
	O2(g)            -9.25    -12.18   -2.93  O2


Reaction step 11.

Using solution 1.	pH 7 charge
Using gas phase 6.	
Using reaction 1.	

Reaction 1.	

	  1.142e+01 moles of the following reaction have been added:

	                 Relative
	Reactant            moles

	CO2                  1.00000

	                 Relative
	Element             moles
	C                    1.00000
	O                    2.00000

-----------------------------------Gas phase-----------------------------------

Total pressure: 65.30      atmospheres          (Peng-Robinson calculation)
    Gas volume:   1.00e+00 liters
  Molar volume:   9.94e-02 liters/mole
   P * Vm / RT:  0.26534  (Compressibility Factor Z) 

                                                        Moles in gas
                                            ----------------------------------
Component         log P           P    phi     Initial       Final       Delta

CO2(g)             1.81   6.530e+01  0.655   0.000e+00   1.006e+01   1.006e+01

-----------------------------Solution composition------------------------------

	Elements           Molality       Moles

	C                 1.364e+00   1.364e+00

----------------------------Description of solution----------------------------

                                       pH  =   3.103      Charge balance
                                       pe  =  15.375      Adjusted to redox equilibrium
       Specific Conductance (uS/cm, 25 oC) = 314
                          Density (g/cm3)  =   1.00008
                        Activity of water  =   0.977
                           Ionic strength  =   8.141e-04
                       Mass of water (kg)  =   1.000e+00
                 Total alkalinity (eq/kg)  =   1.082e-10
                       Total CO2 (mol/kg)  =   1.364e+00
                      Temperature (deg C)  =  25.00
                           Pressure (atm)  = 65.30
                  Electrical balance (eq)  =  -1.082e-10
 Percent error, 100*(Cat-|An|)/(Cat+|An|)  =  -0.00
                               Iterations  =  40
                                  Total H  = 1.110124e+02
                                  Total O  = 5.823450e+01

----------------------------Distribution of species----------------------------

                                            Log       Log         Log     mole V
   Species          Molality    Activity  Molality  Activity     Gamma   cm3/mol

   H+              8.141e-04   7.894e-04    -3.089    -3.103    -0.013      0.00
   OH-             1.353e-11   1.310e-11   -10.869   -10.883    -0.014     -3.13
   H2O             5.551e+01   9.768e-01     1.744    -0.010     0.000     18.02
C(-4)         0.000e+00
   CH4             0.000e+00   0.000e+00  -123.323  -123.323     0.000     33.09
C(4)          1.364e+00
   CO2             1.363e+00   1.364e+00     0.135     0.135     0.000     25.14
   HCO3-           8.141e-04   7.886e-04    -3.089    -3.103    -0.014     24.32
   CO3-2           5.729e-11   5.043e-11   -10.242   -10.297    -0.055     -3.73
H(0)          0.000e+00
   H2              0.000e+00   0.000e+00   -40.127   -40.127     0.000     20.00
O(0)          1.291e-12
   O2              6.454e-13   6.455e-13   -12.190   -12.190     0.000     35.00

------------------------------Saturation indices-------------------------------

	Phase               SI   log IAP   log K(298 K,  65 atm)

	CH4(g)         -120.55   -123.32   -2.78  CH4
	CO2(g)            1.58      0.13   -1.44  CO2	 Pressure  65.3 atm, phi 0.655.
	H2(g)           -37.03    -40.13   -3.10  H2
	H2O(g)           -1.49     -0.01    1.48  H2O
	O2(g)            -9.26    -12.19   -2.93  O2


Reaction step 12.

Using solution 1.	pH 7 charge
Using gas phase 6.	
Using reaction 1.	

Reaction 1.	

	  1.246e+01 moles of the following reaction have been added:

	                 Relative
	Reactant            moles

	CO2                  1.00000

	                 Relative
	Element             moles
	C                    1.00000
	O                    2.00000

-----------------------------------Gas phase-----------------------------------

Total pressure: 65.30      atmospheres          (Peng-Robinson calculation)
    Gas volume:   1.00e+00 liters
  Molar volume:   9.01e-02 liters/mole
   P * Vm / RT:  0.24047  (Compressibility Factor Z) 

                                                        Moles in gas
                                            ----------------------------------
Component         log P           P    phi     Initial       Final       Delta

CO2(g)             1.81   6.530e+01  0.654   0.000e+00   1.110e+01   1.110e+01

-----------------------------Solution composition------------------------------

	Elements           Molality       Moles

	C                 1.362e+00   1.362e+00

----------------------------Description of solution----------------------------

                                       pH  =   3.103      Charge balance
                                       pe  =  16.239      Adjusted to redox equilibrium
       Specific Conductance (uS/cm, 25 oC) = 314
                          Density (g/cm3)  =   1.00008
                        Activity of water  =   0.977
                           Ionic strength  =   8.135e-04
                       Mass of water (kg)  =   1.000e+00
                 Total alkalinity (eq/kg)  =   1.082e-10
                       Total CO2 (mol/kg)  =   1.362e+00
                      Temperature (deg C)  =  25.00
                           Pressure (atm)  = 65.30
                  Electrical balance (eq)  =  -1.082e-10
 Percent error, 100*(Cat-|An|)/(Cat+|An|)  =  -0.00
                               Iterations  =  46
                                  Total H  = 1.110124e+02
                                  Total O  = 5.823049e+01

----------------------------Distribution of species----------------------------

                                            Log       Log         Log     mole V
   Species          Molality    Activity  Molality  Activity     Gamma   cm3/mol

   H+              8.135e-04   7.888e-04    -3.090    -3.103    -0.013      0.00
   OH-             1.354e-11   1.311e-11   -10.868   -10.883    -0.014     -3.13
   H2O             5.551e+01   9.768e-01     1.744    -0.010     0.000     18.02
C(-4)         0.000e+00
   CH4             0.000e+00   0.000e+00  -130.242  -130.242     0.000     33.09
C(4)          1.362e+00
   CO2             1.361e+00   1.362e+00     0.134     0.134     0.000     25.14
   HCO3-           8.135e-04   7.880e-04    -3.090    -3.103    -0.014     24.32
   CO3-2           5.728e-11   5.044e-11   -10.242   -10.297    -0.055     -3.73
H(0)          0.000e+00
   H2              0.000e+00   0.000e+00   -41.857   -41.857     0.000     20.00
O(0)          3.714e-09
   O2              1.857e-09   1.857e-09    -8.731    -8.731     0.000     35.00

------------------------------Saturation indices-------------------------------

	Phase               SI   log IAP   log K(298 K,  65 atm)

	CH4(g)         -127.46   -130.24   -2.78  CH4
	CO2(g)            1.58      0.13   -1.44  CO2	 Pressure  65.3 atm, phi 0.654.
	H2(g)           -38.76    -41.86   -3.10  H2
	H2O(g)           -1.49     -0.01    1.48  H2O
	O2(g)            -5.80     -8.73   -2.93  O2


Reaction step 13.

Using solution 1.	pH 7 charge
Using gas phase 6.	
Using reaction 1.	

Reaction 1.	

	  1.350e+01 moles of the following reaction have been added:

	                 Relative
	Reactant            moles

	CO2                  1.00000

	                 Relative
	Element             moles
	C                    1.00000
	O                    2.00000

-----------------------------------Gas phase-----------------------------------

Total pressure: 65.30      atmospheres          (Peng-Robinson calculation)
    Gas volume:   1.00e+00 liters
  Molar volume:   8.24e-02 liters/mole
   P * Vm / RT:  0.21986  (Compressibility Factor Z) 

                                                        Moles in gas
                                            ----------------------------------
Component         log P           P    phi     Initial       Final       Delta

CO2(g)             1.81   6.530e+01  0.653   0.000e+00   1.214e+01   1.214e+01

-----------------------------Solution composition------------------------------

	Elements           Molality       Moles

	C                 1.360e+00   1.360e+00

----------------------------Description of solution----------------------------

                                       pH  =   3.103      Charge balance
                                       pe  =  16.036      Adjusted to redox equilibrium
       Specific Conductance (uS/cm, 25 oC) = 314
                          Density (g/cm3)  =   1.00008
                        Activity of water  =   0.977
                           Ionic strength  =   8.129e-04
                       Mass of water (kg)  =   1.000e+00
                 Total alkalinity (eq/kg)  =   1.082e-10
                       Total CO2 (mol/kg)  =   1.360e+00
                      Temperature (deg C)  =  25.00
                           Pressure (atm)  = 65.30
                  Electrical balance (eq)  =  -1.082e-10
 Percent error, 100*(Cat-|An|)/(Cat+|An|)  =  -0.00
                               Iterations  =  49
                                  Total H  = 1.110124e+02
                                  Total O  = 5.822624e+01

----------------------------Distribution of species----------------------------

                                            Log       Log         Log     mole V
   Species          Molality    Activity  Molality  Activity     Gamma   cm3/mol

   H+              8.129e-04   7.882e-04    -3.090    -3.103    -0.013      0.00
   OH-             1.355e-11   1.312e-11   -10.868   -10.882    -0.014     -3.13
   H2O             5.551e+01   9.769e-01     1.744    -0.010     0.000     18.02
C(-4)         0.000e+00
   CH4             0.000e+00   0.000e+00  -128.624  -128.624     0.000     33.09
C(4)          1.360e+00
   CO2             1.359e+00   1.359e+00     0.133     0.133     0.000     25.14
   HCO3-           8.129e-04   7.874e-04    -3.090    -3.104    -0.014     24.32
   CO3-2           5.728e-11   5.044e-11   -10.242   -10.297    -0.055     -3.73
H(0)          0.000e+00
   H2              0.000e+00   0.000e+00   -41.452   -41.452     0.000     20.00
O(0)          5.761e-10
   O2              2.881e-10   2.881e-10    -9.541    -9.540     0.000     35.00

------------------------------Saturation indices-------------------------------

	Phase               SI   log IAP   log K(298 K,  65 atm)

	CH4(g)         -125.85   -128.62   -2.78  CH4
	CO2(g)            1.58      0.13   -1.44  CO2	 Pressure  65.3 atm, phi 0.653.
	H2(g)           -38.35    -41.45   -3.10  H2
	H2O(g)           -1.49     -0.01    1.48  H2O
	O2(g)            -6.61     -9.54   -2.93  O2


Reaction step 14.

Using solution 1.	pH 7 charge
Using gas phase 6.	
Using reaction 1.	

Reaction 1.	

	  1.454e+01 moles of the following reaction have been added:

	                 Relative
	Reactant            moles

	CO2                  1.00000

	                 Relative
	Element             moles
	C                    1.00000
	O                    2.00000

-----------------------------------Gas phase-----------------------------------

Total pressure: 65.30      atmospheres          (Peng-Robinson calculation)
    Gas volume:   1.00e+00 liters
  Molar volume:   7.59e-02 liters/mole
   P * Vm / RT:  0.20250  (Compressibility Factor Z) 

                                                        Moles in gas
                                            ----------------------------------
Component         log P           P    phi     Initial       Final       Delta

CO2(g)             1.81   6.530e+01  0.652   0.000e+00   1.318e+01   1.318e+01

-----------------------------Solution composition------------------------------

	Elements           Molality       Moles

	C                 1.358e+00   1.358e+00

----------------------------Description of solution----------------------------

                                       pH  =   3.104      Charge balance
                                       pe  =  15.379      Adjusted to redox equilibrium
       Specific Conductance (uS/cm, 25 oC) = 314
                          Density (g/cm3)  =   1.00008
                        Activity of water  =   0.977
                           Ionic strength  =   8.123e-04
                       Mass of water (kg)  =   1.000e+00
                 Total alkalinity (eq/kg)  =   1.082e-10
                       Total CO2 (mol/kg)  =   1.358e+00
                      Temperature (deg C)  =  25.00
                           Pressure (atm)  = 65.30
                  Electrical balance (eq)  =  -1.082e-10
 Percent error, 100*(Cat-|An|)/(Cat+|An|)  =  -0.00
                               Iterations  =  74
                                  Total H  = 1.110124e+02
                                  Total O  = 5.822263e+01

----------------------------Distribution of species----------------------------

                                            Log       Log         Log     mole V
   Species          Molality    Activity  Molality  Activity     Gamma   cm3/mol

   H+              8.123e-04   7.877e-04    -3.090    -3.104    -0.013      0.00
   OH-             1.356e-11   1.313e-11   -10.868   -10.882    -0.014     -3.13
   H2O             5.551e+01   9.769e-01     1.744    -0.010     0.000     18.02
C(-4)         0.000e+00
   CH4             0.000e+00   0.000e+00  -123.367  -123.367     0.000     33.09
C(4)          1.358e+00
   CO2             1.357e+00   1.358e+00     0.133     0.133     0.000     25.14
   HCO3-           8.123e-04   7.869e-04    -3.090    -3.104    -0.014     24.32
   CO3-2           5.728e-11   5.044e-11   -10.242   -10.297    -0.055     -3.73
H(0)          0.000e+00
   H2              0.000e+00   0.000e+00   -40.138   -40.138     0.000     20.00
O(0)          1.354e-12
   O2              6.771e-13   6.773e-13   -12.169   -12.169     0.000     35.00

------------------------------Saturation indices-------------------------------

	Phase               SI   log IAP   log K(298 K,  65 atm)

	CH4(g)         -120.59   -123.37   -2.78  CH4
	CO2(g)            1.58      0.13   -1.44  CO2	 Pressure  65.3 atm, phi 0.652.
	H2(g)           -37.04    -40.14   -3.10  H2
	H2O(g)           -1.49     -0.01    1.48  H2O
	O2(g)            -9.24    -12.17   -2.93  O2


Reaction step 15.

Using solution 1.	pH 7 charge
Using gas phase 6.	
Using reaction 1.	

Reaction 1.	

	  1.558e+01 moles of the following reaction have been added:

	                 Relative
	Reactant            moles

	CO2                  1.00000

	                 Relative
	Element             moles
	C                    1.00000
	O                    2.00000

-----------------------------------Gas phase-----------------------------------

Total pressure: 65.30      atmospheres          (Peng-Robinson calculation)
    Gas volume:   1.00e+00 liters
  Molar volume:   7.03e-02 liters/mole
   P * Vm / RT:  0.18770  (Compressibility Factor Z) 

                                                        Moles in gas
                                            ----------------------------------
Component         log P           P    phi     Initial       Final       Delta

CO2(g)             1.81   6.530e+01  0.652   0.000e+00   1.422e+01   1.422e+01

-----------------------------Solution composition------------------------------

	Elements           Molality       Moles

	C                 1.357e+00   1.357e+00

----------------------------Description of solution----------------------------

                                       pH  =   3.104      Charge balance
                                       pe  =  16.225      Adjusted to redox equilibrium
       Specific Conductance (uS/cm, 25 oC) = 314
                          Density (g/cm3)  =   1.00008
                        Activity of water  =   0.977
                           Ionic strength  =   8.120e-04
                       Mass of water (kg)  =   1.000e+00
                 Total alkalinity (eq/kg)  =   1.082e-10
                       Total CO2 (mol/kg)  =   1.357e+00
                      Temperature (deg C)  =  25.00
                           Pressure (atm)  = 65.30
                  Electrical balance (eq)  =  -1.082e-10
 Percent error, 100*(Cat-|An|)/(Cat+|An|)  =  -0.00
                               Iterations  =  56
                                  Total H  = 1.110124e+02
                                  Total O  = 5.822054e+01

----------------------------Distribution of species----------------------------

                                            Log       Log         Log     mole V
   Species          Molality    Activity  Molality  Activity     Gamma   cm3/mol

   H+              8.120e-04   7.874e-04    -3.090    -3.104    -0.013      0.00
   OH-             1.356e-11   1.313e-11   -10.868   -10.882    -0.014     -3.13
   H2O             5.551e+01   9.769e-01     1.744    -0.010     0.000     18.02
C(-4)         0.000e+00
   CH4             0.000e+00   0.000e+00  -130.141  -130.141     0.000     33.09
C(4)          1.357e+00
   CO2             1.356e+00   1.357e+00     0.132     0.132     0.000     25.14
   HCO3-           8.120e-04   7.866e-04    -3.090    -3.104    -0.014     24.32
   CO3-2           5.728e-11   5.044e-11   -10.242   -10.297    -0.055     -3.73
H(0)          0.000e+00
   H2              0.000e+00   0.000e+00   -41.831   -41.831     0.000     20.00
O(0)          3.301e-09
   O2              1.650e-09   1.651e-09    -8.782    -8.782     0.000     35.00

------------------------------Saturation indices-------------------------------

	Phase               SI   log IAP   log K(298 K,  65 atm)

	CH4(g)         -127.36   -130.14   -2.78  CH4
	CO2(g)            1.58      0.13   -1.44  CO2	 Pressure  65.3 atm, phi 0.652.
	H2(g)           -38.73    -41.83   -3.10  H2
	H2O(g)           -1.49     -0.01    1.48  H2O
	O2(g)            -5.85     -8.78   -2.93  O2


Reaction step 16.

WARNING: Maximum iterations exceeded, 100

WARNING: Numerical method failed with this set of convergence parameters.

WARNING: Trying smaller step size, pe step size 10, 5 ... 

Using solution 1.	pH 7 charge
Using gas phase 6.	
Using reaction 1.	

Reaction 1.	

	  1.662e+01 moles of the following reaction have been added:

	                 Relative
	Reactant            moles

	CO2                  1.00000

	                 Relative
	Element             moles
	C                    1.00000
	O                    2.00000

-----------------------------------Gas phase-----------------------------------

Total pressure: 68.88      atmospheres          (Peng-Robinson calculation)
    Gas volume:   1.00e+00 liters
  Molar volume:   6.56e-02 liters/mole
   P * Vm / RT:  0.18462  (Compressibility Factor Z) 

                                                        Moles in gas
                                            ----------------------------------
Component         log P           P    phi     Initial       Final       Delta

CO2(g)             1.84   6.888e+01  0.624   0.000e+00   1.525e+01   1.525e+01

-----------------------------Solution composition------------------------------

	Elements           Molality       Moles

	C                 1.365e+00   1.365e+00

----------------------------Description of solution----------------------------

                                       pH  =   3.102      Charge balance
                                       pe  =   1.328      Adjusted to redox equilibrium
       Specific Conductance (uS/cm, 25 oC) = 315
                          Density (g/cm3)  =   1.00024
                        Activity of water  =   0.977
                           Ionic strength  =   8.156e-04
                       Mass of water (kg)  =   1.000e+00
                 Total alkalinity (eq/kg)  =   1.086e-10
                       Total CO2 (mol/kg)  =   1.365e+00
                      Temperature (deg C)  =  25.00
                           Pressure (atm)  = 68.88
                  Electrical balance (eq)  =  -1.086e-10
 Percent error, 100*(Cat-|An|)/(Cat+|An|)  =  -0.00
                               Iterations  = 112
                                  Total H  = 1.110124e+02
                                  Total O  = 5.823671e+01

----------------------------Distribution of species----------------------------

                                            Log       Log         Log     mole V
   Species          Molality    Activity  Molality  Activity     Gamma   cm3/mol

   H+              8.156e-04   7.908e-04    -3.089    -3.102    -0.013      0.00
   OH-             1.354e-11   1.311e-11   -10.868   -10.882    -0.014     -3.13
   H2O             5.551e+01   9.768e-01     1.744    -0.010     0.000     18.01
C(-4)         1.124e-11
   CH4             1.124e-11   1.124e-11   -10.949   -10.949     0.000     33.09
C(4)          1.365e+00
   CO2             1.364e+00   1.365e+00     0.135     0.135     0.000     25.17
   HCO3-           8.156e-04   7.900e-04    -3.089    -3.102    -0.014     24.32
   CO3-2           5.753e-11   5.064e-11   -10.240   -10.295    -0.055     -3.73
H(0)          1.847e-12
   H2              9.233e-13   9.235e-13   -12.035   -12.035     0.000     20.00
O(0)          0.000e+00
   O2              0.000e+00   0.000e+00   -68.378   -68.378     0.000     35.00

------------------------------Saturation indices-------------------------------

	Phase               SI   log IAP   log K(298 K,  69 atm)

	CH4(g)           -8.18    -10.95   -2.77  CH4
	CO2(g)            1.58      0.14   -1.44  CO2	 Pressure  68.9 atm, phi 0.624.
	H2(g)            -8.93    -12.03   -3.10  H2
	H2O(g)           -1.49     -0.01    1.48  H2O
	O2(g)           -65.44    -68.38   -2.94  O2


Reaction step 17.

Using solution 1.	pH 7 charge
Using gas phase 6.	
Using reaction 1.	

Reaction 1.	

	  1.765e+01 moles of the following reaction have been added:

	                 Relative
	Reactant            moles

	CO2                  1.00000

	                 Relative
	Element             moles
	C                    1.00000
	O                    2.00000

-----------------------------------Gas phase-----------------------------------

Total pressure: 77.75      atmospheres          (Peng-Robinson calculation)
    Gas volume:   1.00e+00 liters
  Molar volume:   6.15e-02 liters/mole
   P * Vm / RT:  0.19533  (Compressibility Factor Z) 

                                                        Moles in gas
                                            ----------------------------------
Component         log P           P    phi     Initial       Final       Delta

CO2(g)             1.89   7.775e+01  0.566   0.000e+00   1.627e+01   1.627e+01

-----------------------------Solution composition------------------------------

	Elements           Molality       Moles

	C                 1.384e+00   1.384e+00

----------------------------Description of solution----------------------------

                                       pH  =   3.098      Charge balance
                                       pe  =  15.744      Adjusted to redox equilibrium
       Specific Conductance (uS/cm, 25 oC) = 318
                          Density (g/cm3)  =   1.00065
                        Activity of water  =   0.976
                           Ionic strength  =   8.241e-04
                       Mass of water (kg)  =   1.000e+00
                 Total alkalinity (eq/kg)  =   1.084e-10
                       Total CO2 (mol/kg)  =   1.384e+00
                      Temperature (deg C)  =  25.00
                           Pressure (atm)  = 77.75
                  Electrical balance (eq)  =  -1.084e-10
 Percent error, 100*(Cat-|An|)/(Cat+|An|)  =  -0.00
                               Iterations  =  94
                                  Total H  = 1.110124e+02
                                  Total O  = 5.827403e+01

----------------------------Distribution of species----------------------------

                                            Log       Log         Log     mole V
   Species          Molality    Activity  Molality  Activity     Gamma   cm3/mol

   H+              8.241e-04   7.989e-04    -3.084    -3.098    -0.013      0.00
   OH-             1.351e-11   1.307e-11   -10.869   -10.884    -0.014     -3.13
   H2O             5.551e+01   9.765e-01     1.744    -0.010     0.000     18.00
C(-4)         0.000e+00
   CH4             0.000e+00   0.000e+00  -126.239  -126.238     0.000     33.09
C(4)          1.384e+00
   CO2             1.383e+00   1.383e+00     0.141     0.141     0.000     25.25
   HCO3-           8.241e-04   7.981e-04    -3.084    -3.098    -0.014     24.32
   CO3-2           5.815e-11   5.116e-11   -10.235   -10.291    -0.056     -3.73
H(0)          0.000e+00
   H2              0.000e+00   0.000e+00   -40.860   -40.860     0.000     20.00
O(0)          3.689e-11
   O2              1.845e-11   1.845e-11   -10.734   -10.734     0.000     35.00

------------------------------Saturation indices-------------------------------

	Phase               SI   log IAP   log K(298 K,  78 atm)

	CH4(g)         -123.47   -126.24   -2.76  CH4
	CO2(g)            1.58      0.14   -1.44  CO2	 Pressure  77.8 atm, phi 0.566.
	H2(g)           -37.76    -40.86   -3.10  H2
	H2O(g)           -1.49     -0.01    1.48  H2O
	O2(g)            -7.79    -10.73   -2.94  O2


Reaction step 18.

Using solution 1.	pH 7 charge
Using gas phase 6.	
Using reaction 1.	

Reaction 1.	

	  1.869e+01 moles of the following reaction have been added:

	                 Relative
	Reactant            moles

	CO2                  1.00000

	                 Relative
	Element             moles
	C                    1.00000
	O                    2.00000

-----------------------------------Gas phase-----------------------------------

Total pressure: 91.01      atmospheres          (Peng-Robinson calculation)
    Gas volume:   1.00e+00 liters
  Molar volume:   5.79e-02 liters/mole
   P * Vm / RT:  0.21523  (Compressibility Factor Z) 

                                                        Moles in gas
                                            ----------------------------------
Component         log P           P    phi     Initial       Final       Delta

CO2(g)             1.96   9.101e+01  0.499   0.000e+00   1.728e+01   1.728e+01

-----------------------------Solution composition------------------------------

	Elements           Molality       Moles

	C                 1.409e+00   1.409e+00

----------------------------Description of solution----------------------------

                                       pH  =   3.091      Charge balance
                                       pe  =  15.471      Adjusted to redox equilibrium
       Specific Conductance (uS/cm, 25 oC) = 323
                          Density (g/cm3)  =   1.00126
                        Activity of water  =   0.976
                           Ionic strength  =   8.360e-04
                       Mass of water (kg)  =   1.000e+00
                 Total alkalinity (eq/kg)  =   1.083e-10
                       Total CO2 (mol/kg)  =   1.409e+00
                      Temperature (deg C)  =  25.00
                           Pressure (atm)  = 91.01
                  Electrical balance (eq)  =  -1.083e-10
 Percent error, 100*(Cat-|An|)/(Cat+|An|)  =  -0.00
                               Iterations  =  43
                                  Total H  = 1.110124e+02
                                  Total O  = 5.832464e+01

----------------------------Distribution of species----------------------------

                                            Log       Log         Log     mole V
   Species          Molality    Activity  Molality  Activity     Gamma   cm3/mol

   H+              8.360e-04   8.103e-04    -3.078    -3.091    -0.014      0.00
   OH-             1.347e-11   1.303e-11   -10.871   -10.885    -0.014     -3.13
   H2O             5.551e+01   9.760e-01     1.744    -0.011     0.000     17.99
C(-4)         0.000e+00
   CH4             0.000e+00   0.000e+00  -124.010  -124.010     0.000     33.09
C(4)          1.409e+00
   CO2             1.408e+00   1.409e+00     0.149     0.149     0.000     25.37
   HCO3-           8.360e-04   8.095e-04    -3.078    -3.092    -0.014     24.32
   CO3-2           5.910e-11   5.194e-11   -10.228   -10.284    -0.056     -3.73
H(0)          0.000e+00
   H2              0.000e+00   0.000e+00   -40.307   -40.307     0.000     20.00
O(0)          2.827e-12
   O2              1.414e-12   1.414e-12   -11.850   -11.850     0.000     35.00

------------------------------Saturation indices-------------------------------

	Phase               SI   log IAP   log K(298 K,  91 atm)

	CH4(g)         -121.26   -124.01   -2.75  CH4
	CO2(g)            1.58      0.15   -1.43  CO2	 Pressure  91.0 atm, phi 0.499.
	H2(g)           -37.21    -40.31   -3.10  H2
	H2O(g)           -1.48     -0.01    1.47  H2O
	O2(g)            -8.90    -11.85   -2.95  O2


Reaction step 19.

Using solution 1.	pH 7 charge
Using gas phase 6.	
Using reaction 1.	

Reaction 1.	

	  1.973e+01 moles of the following reaction have been added:

	                 Relative
	Reactant            moles

	CO2                  1.00000

	                 Relative
	Element             moles
	C                    1.00000
	O                    2.00000

-----------------------------------Gas phase-----------------------------------

Total pressure: 109.70      atmospheres          (Peng-Robinson calculation)
    Gas volume:   1.00e+00 liters
  Molar volume:   5.47e-02 liters/mole
   P * Vm / RT:  0.24516  (Compressibility Factor Z) 

                                                        Moles in gas
                                            ----------------------------------
Component         log P           P    phi     Initial       Final       Delta

CO2(g)             2.04   1.097e+02  0.432   0.000e+00   1.829e+01   1.829e+01

-----------------------------Solution composition------------------------------

	Elements           Molality       Moles

	C                 1.442e+00   1.442e+00

----------------------------Description of solution----------------------------

                                       pH  =   3.083      Charge balance
                                       pe  =  15.730      Adjusted to redox equilibrium
       Specific Conductance (uS/cm, 25 oC) = 329
                          Density (g/cm3)  =   1.00212
                        Activity of water  =   0.975
                           Ionic strength  =   8.520e-04
                       Mass of water (kg)  =   1.000e+00
                 Total alkalinity (eq/kg)  =   1.084e-10
                       Total CO2 (mol/kg)  =   1.442e+00
                      Temperature (deg C)  =  25.00
                           Pressure (atm)  = 109.70
                  Electrical balance (eq)  =  -1.084e-10
 Percent error, 100*(Cat-|An|)/(Cat+|An|)  =  -0.00
                               Iterations  =  69
                                  Total H  = 1.110124e+02
                                  Total O  = 5.838953e+01

----------------------------Distribution of species----------------------------

                                            Log       Log         Log     mole V
   Species          Molality    Activity  Molality  Activity     Gamma   cm3/mol

   H+              8.520e-04   8.256e-04    -3.070    -3.083    -0.014      0.00
   OH-             1.343e-11   1.299e-11   -10.872   -10.886    -0.014     -3.13
   H2O             5.551e+01   9.755e-01     1.744    -0.011     0.000     17.98
C(-4)         0.000e+00
   CH4             0.000e+00   0.000e+00  -126.016  -126.016     0.000     33.09
C(4)          1.442e+00
   CO2             1.441e+00   1.441e+00     0.159     0.159     0.000     25.54
   HCO3-           8.520e-04   8.247e-04    -3.070    -3.084    -0.014     24.32
   CO3-2           6.044e-11   5.307e-11   -10.219   -10.275    -0.057     -3.73
H(0)          0.000e+00
   H2              0.000e+00   0.000e+00   -40.814   -40.814     0.000     20.00
O(0)          2.835e-11
   O2              1.418e-11   1.418e-11   -10.848   -10.848     0.000     35.00

------------------------------Saturation indices-------------------------------

	Phase               SI   log IAP   log K(298 K, 110 atm)

	CH4(g)         -123.28   -126.02   -2.73  CH4
	CO2(g)            1.58      0.16   -1.43  CO2	 Pressure 109.7 atm, phi 0.432.
	H2(g)           -37.71    -40.81   -3.10  H2
	H2O(g)           -1.48     -0.01    1.47  H2O
	O2(g)            -7.89    -10.85   -2.96  O2


Reaction step 20.

Using solution 1.	pH 7 charge
Using gas phase 6.	
Using reaction 1.	

Reaction 1.	

	  2.077e+01 moles of the following reaction have been added:

	                 Relative
	Reactant            moles

	CO2                  1.00000

	                 Relative
	Element             moles
	C                    1.00000
	O                    2.00000

-----------------------------------Gas phase-----------------------------------

Total pressure: 135.05      atmospheres          (Peng-Robinson calculation)
    Gas volume:   1.00e+00 liters
  Molar volume:   5.18e-02 liters/mole
   P * Vm / RT:  0.28619  (Compressibility Factor Z) 

                                                        Moles in gas
                                            ----------------------------------
Component         log P           P    phi     Initial       Final       Delta

CO2(g)             2.13   1.350e+02  0.371   0.000e+00   1.929e+01   1.929e+01

-----------------------------Solution composition------------------------------

	Elements           Molality       Moles

	C                 1.482e+00   1.482e+00

----------------------------Description of solution----------------------------

                                       pH  =   3.073      Charge balance
                                       pe  =   2.502      Adjusted to redox equilibrium
       Specific Conductance (uS/cm, 25 oC) = 337
                          Density (g/cm3)  =   1.00329
                        Activity of water  =   0.975
                           Ionic strength  =   8.729e-04
                       Mass of water (kg)  =   1.000e+00
                 Total alkalinity (eq/kg)  =   1.083e-10
                       Total CO2 (mol/kg)  =   1.482e+00
                      Temperature (deg C)  =  25.00
                           Pressure (atm)  = 135.05
                  Electrical balance (eq)  =  -1.083e-10
 Percent error, 100*(Cat-|An|)/(Cat+|An|)  =  -0.00
                               Iterations  =  70
                                  Total H  = 1.110124e+02
                                  Total O  = 5.846953e+01

----------------------------Distribution of species----------------------------

                                            Log       Log         Log     mole V
   Species          Molality    Activity  Molality  Activity     Gamma   cm3/mol

   H+              8.729e-04   8.455e-04    -3.059    -3.073    -0.014      0.00
   OH-             1.340e-11   1.295e-11   -10.873   -10.888    -0.015     -3.13
   H2O             5.551e+01   9.748e-01     1.744    -0.011     0.000     17.96
C(-4)         7.591e-21
   CH4             7.591e-21   7.592e-21   -20.120   -20.120     0.000     33.09
C(4)          1.482e+00
   CO2             1.481e+00   1.481e+00     0.170     0.171     0.000     25.77
   HCO3-           8.729e-04   8.446e-04    -3.059    -3.073    -0.014     24.32
   CO3-2           6.232e-11   5.463e-11   -10.205   -10.263    -0.057     -3.72
H(0)          8.983e-15
   H2              4.491e-15   4.492e-15   -14.348   -14.348     0.000     20.00
O(0)          0.000e+00
   O2              0.000e+00   0.000e+00   -63.800   -63.800     0.000     35.00

------------------------------Saturation indices-------------------------------

	Phase               SI   log IAP   log K(298 K, 135 atm)

	CH4(g)          -17.41    -20.12   -2.71  CH4
	CO2(g)            1.59      0.17   -1.42  CO2	 Pressure 135.0 atm, phi 0.371.
	H2(g)           -11.25    -14.35   -3.10  H2
	H2O(g)           -1.47     -0.01    1.46  H2O
	O2(g)           -60.82    -63.80   -2.98  O2


Reaction step 21.

Using solution 1.	pH 7 charge
Using gas phase 6.	
Using reaction 1.	

Reaction 1.	

	  2.181e+01 moles of the following reaction have been added:

	                 Relative
	Reactant            moles

	CO2                  1.00000

	                 Relative
	Element             moles
	C                    1.00000
	O                    2.00000

-----------------------------------Gas phase-----------------------------------

Total pressure: 168.52      atmospheres          (Peng-Robinson calculation)
    Gas volume:   1.00e+00 liters
  Molar volume:   4.93e-02 liters/mole
   P * Vm / RT:  0.33967  (Compressibility Factor Z) 

                                                        Moles in gas
                                            ----------------------------------
Component         log P           P    phi     Initial       Final       Delta

CO2(g)             2.23   1.685e+02  0.319   0.000e+00   2.028e+01   2.028e+01

-----------------------------Solution composition------------------------------

	Elements           Molality       Moles

	C                 1.530e+00   1.529e+00

----------------------------Description of solution----------------------------

                                       pH  =   3.060      Charge balance
                                       pe  =  15.697      Adjusted to redox equilibrium
       Specific Conductance (uS/cm, 25 oC) = 347
                          Density (g/cm3)  =   1.00483
                        Activity of water  =   0.974
                           Ionic strength  =   8.996e-04
                       Mass of water (kg)  =   1.000e+00
                 Total alkalinity (eq/kg)  =   1.084e-10
                       Total CO2 (mol/kg)  =   1.530e+00
                      Temperature (deg C)  =  25.00
                           Pressure (atm)  = 168.52
                  Electrical balance (eq)  =  -1.084e-10
 Percent error, 100*(Cat-|An|)/(Cat+|An|)  =  -0.00
                               Iterations  =  47
                                  Total H  = 1.110124e+02
                                  Total O  = 5.856519e+01

----------------------------Distribution of species----------------------------

                                            Log       Log         Log     mole V
   Species          Molality    Activity  Molality  Activity     Gamma   cm3/mol

   H+              8.996e-04   8.710e-04    -3.046    -3.060    -0.014      0.00
   OH-             1.338e-11   1.293e-11   -10.874   -10.888    -0.015     -3.13
   H2O             5.551e+01   9.740e-01     1.744    -0.011     0.000     17.93
C(-4)         0.000e+00
   CH4             0.000e+00   0.000e+00  -125.589  -125.589     0.000     33.09
C(4)          1.530e+00
   CO2             1.529e+00   1.529e+00     0.184     0.184     0.000     26.07
   HCO3-           8.996e-04   8.701e-04    -3.046    -3.060    -0.015     24.32
   CO3-2           6.488e-11   5.676e-11   -10.188   -10.246    -0.058     -3.72
H(0)          0.000e+00
   H2              0.000e+00   0.000e+00   -40.724   -40.724     0.000     20.00
O(0)          1.698e-11
   O2              8.491e-12   8.492e-12   -11.071   -11.071     0.000     35.00

------------------------------Saturation indices-------------------------------

	Phase               SI   log IAP   log K(298 K, 169 atm)

	CH4(g)         -122.92   -125.59   -2.67  CH4
	CO2(g)            1.59      0.18   -1.40  CO2	 Pressure 168.5 atm, phi 0.319.
	H2(g)           -37.62    -40.72   -3.10  H2
	H2O(g)           -1.46     -0.01    1.45  H2O
	O2(g)            -8.07    -11.07   -3.00  O2


Reaction step 22.

Using solution 1.	pH 7 charge
Using gas phase 6.	
Using reaction 1.	

Reaction 1.	

	  2.285e+01 moles of the following reaction have been added:

	                 Relative
	Reactant            moles

	CO2                  1.00000

	                 Relative
	Element             moles
[...]
 Percent error, 100*(Cat-|An|)/(Cat+|An|)  =  -0.10
                               Iterations  = 120
                                  Total H  = 1.110124e+02
                                  Total O  = 5.832824e+01

----------------------------Distribution of species----------------------------

                                            Log       Log         Log     mole V
   Species          Molality    Activity  Molality  Activity     Gamma   cm3/mol

   H+              9.339e-04   9.005e-04    -3.030    -3.046    -0.016      0.00
   OH-             3.002e-10   2.889e-10    -9.523    -9.539    -0.017     -7.10
   H2O             5.551e+01   9.760e-01     1.744    -0.011     0.000     18.18
C(-4)         0.000e+00
   CH4             0.000e+00   0.000e+00  -108.383  -108.383     0.000     33.26
C(4)          1.411e+00
   CO2             1.410e+00   1.410e+00     0.149     0.149     0.000     24.23
   HCO3-           9.357e-04   9.011e-04    -3.029    -3.045    -0.016     25.15
   CO3-2           1.248e-10   1.074e-10    -9.904    -9.969    -0.065     -3.93
H(0)          1.704e-35
   H2              8.522e-36   8.524e-36   -35.069   -35.069     0.000     20.00
O(0)          4.470e-09
   O2              2.235e-09   2.235e-09    -8.651    -8.651     0.000     35.00

------------------------------Saturation indices-------------------------------

	Phase               SI   log IAP   log K(348 K, 353 atm)

	CH4(g)         -105.64   -108.38   -2.74  CH4
	CO2(g)            1.90      0.15   -1.76  CO2	 Pressure 353.5 atm, phi 0.402.
	H2(g)           -31.94    -35.07   -3.13  H2
	H2O(g)           -0.34     -0.01    0.33  H2O
	O2(g)            -5.36     -8.65   -3.29  O2


Reaction step 21.

Using solution 1.	pH 7 charge
Using gas phase 6.	
Using reaction 1.	

Reaction 1.	

	  2.100e+01 moles of the following reaction have been added:

	                 Relative
	Reactant            moles

	CO2                  1.00000

	                 Relative
	Element             moles
	C                    1.00000
	O                    2.00000

-----------------------------------Gas phase-----------------------------------

Total pressure: 402.81      atmospheres          (Peng-Robinson calculation)
    Gas volume:   1.00e+00 liters
  Molar volume:   5.12e-02 liters/mole
   P * Vm / RT:  0.72201  (Compressibility Factor Z) 

                                                        Moles in gas
                                            ----------------------------------
Component         log P           P    phi     Initial       Final       Delta

CO2(g)             2.61   4.028e+02  0.386   0.000e+00   1.953e+01   1.953e+01

-----------------------------Solution composition------------------------------

	Elements           Molality       Moles

	C                 1.472e+00   1.472e+00

----------------------------Description of solution----------------------------

                                       pH  =   3.029      Charge balance
                                       pe  =  12.104      Adjusted to redox equilibrium
       Specific Conductance (uS/cm, 75 oC) = 881
                          Density (g/cm3)  =   0.99340
                        Activity of water  =   0.975
                           Ionic strength  =   9.721e-04
                       Mass of water (kg)  =   1.000e+00
                 Total alkalinity (eq/kg)  =   1.854e-06
                       Total CO2 (mol/kg)  =   1.472e+00
                      Temperature (deg C)  =  75.00
                           Pressure (atm)  = 402.81
                  Electrical balance (eq)  =  -1.854e-06
 Percent error, 100*(Cat-|An|)/(Cat+|An|)  =  -0.10
                               Iterations  =  57
                                  Total H  = 1.110124e+02
                                  Total O  = 5.845058e+01

----------------------------Distribution of species----------------------------

                                            Log       Log         Log     mole V
   Species          Molality    Activity  Molality  Activity     Gamma   cm3/mol

   H+              9.711e-04   9.358e-04    -3.013    -3.029    -0.016      0.00
   OH-             3.015e-10   2.899e-10    -9.521    -9.538    -0.017     -7.10
   H2O             5.551e+01   9.750e-01     1.744    -0.011     0.000     18.14
C(-4)         0.000e+00
   CH4             0.000e+00   0.000e+00  -102.950  -102.950     0.000     33.26
C(4)          1.472e+00
   CO2             1.471e+00   1.472e+00     0.168     0.168     0.000     24.68
   HCO3-           9.730e-04   9.364e-04    -3.012    -3.029    -0.017     25.15
   CO3-2           1.316e-10   1.129e-10    -9.881    -9.947    -0.067     -3.93
H(0)          3.780e-34
   H2              1.890e-34   1.890e-34   -33.724   -33.723     0.000     20.00
O(0)          8.473e-12
   O2              4.236e-12   4.237e-12   -11.373   -11.373     0.000     35.00

------------------------------Saturation indices-------------------------------

	Phase               SI   log IAP   log K(348 K, 403 atm)

	CH4(g)         -100.25   -102.95   -2.70  CH4
	CO2(g)            1.91      0.17   -1.74  CO2	 Pressure 402.8 atm, phi 0.386.
	H2(g)           -30.59    -33.72   -3.13  H2
	H2O(g)           -0.32     -0.01    0.31  H2O
	O2(g)            -8.05    -11.37   -3.32  O2


Reaction step 22.

Using solution 1.	pH 7 charge
Using gas phase 6.	
Using reaction 1.	

Reaction 1.	

	  2.200e+01 moles of the following reaction have been added:

	                 Relative
	Reactant            moles

	CO2                  1.00000

	                 Relative
	Element             moles
	C                    1.00000
	O                    2.00000

-----------------------------------Gas phase-----------------------------------

Total pressure: 461.70      atmospheres          (Peng-Robinson calculation)
    Gas volume:   1.00e+00 liters
  Molar volume:   4.89e-02 liters/mole
   P * Vm / RT:  0.78979  (Compressibility Factor Z) 

                                                        Moles in gas
                                            ----------------------------------
Component         log P           P    phi     Initial       Final       Delta

CO2(g)             2.66   4.617e+02  0.374   0.000e+00   2.046e+01   2.046e+01

-----------------------------Solution composition------------------------------

	Elements           Molality       Moles

	C                 1.538e+00   1.538e+00

----------------------------Description of solution----------------------------

                                       pH  =   3.010      Charge balance
                                       pe  =  12.004      Adjusted to redox equilibrium
       Specific Conductance (uS/cm, 75 oC) = 920
                          Density (g/cm3)  =   0.99611
                        Activity of water  =   0.974
                           Ionic strength  =   1.016e-03
                       Mass of water (kg)  =   1.000e+00
                 Total alkalinity (eq/kg)  =   1.854e-06
                       Total CO2 (mol/kg)  =   1.538e+00
                      Temperature (deg C)  =  75.00
                           Pressure (atm)  = 461.70
                  Electrical balance (eq)  =  -1.854e-06
 Percent error, 100*(Cat-|An|)/(Cat+|An|)  =  -0.09
                               Iterations  =  81
                                  Total H  = 1.110124e+02
                                  Total O  = 5.858186e+01

----------------------------Distribution of species----------------------------

                                            Log       Log         Log     mole V
   Species          Molality    Activity  Molality  Activity     Gamma   cm3/mol

   H+              1.015e-03   9.773e-04    -2.994    -3.010    -0.016      0.00
   OH-             3.038e-10   2.919e-10    -9.517    -9.535    -0.017     -7.10
   H2O             5.551e+01   9.738e-01     1.744    -0.012     0.000     18.09
C(-4)         0.000e+00
   CH4             0.000e+00   0.000e+00  -102.011  -102.011     0.000     33.26
C(4)          1.538e+00
   CO2             1.537e+00   1.537e+00     0.187     0.187     0.000     25.21
   HCO3-           1.017e-03   9.777e-04    -2.993    -3.010    -0.017     25.15
   CO3-2           1.402e-10   1.198e-10    -9.853    -9.921    -0.068     -3.93
H(0)          6.285e-34
   H2              3.143e-34   3.143e-34   -33.503   -33.503     0.000     20.00
O(0)          2.818e-12
   O2              1.409e-12   1.410e-12   -11.851   -11.851     0.000     35.00

------------------------------Saturation indices-------------------------------

	Phase               SI   log IAP   log K(348 K, 462 atm)

	CH4(g)          -99.36   -102.01   -2.65  CH4
	CO2(g)            1.91      0.19   -1.72  CO2	 Pressure 461.7 atm, phi 0.374.
	H2(g)           -30.37    -33.50   -3.13  H2
	H2O(g)           -0.31     -0.01    0.30  H2O
	O2(g)            -8.50    -11.85   -3.35  O2


Reaction step 23.

Using solution 1.	pH 7 charge
Using gas phase 6.	
Using reaction 1.	

Reaction 1.	

	  2.300e+01 moles of the following reaction have been added:

	                 Relative
	Reactant            moles

	CO2                  1.00000

	                 Relative
	Element             moles
	C                    1.00000
	O                    2.00000

-----------------------------------Gas phase-----------------------------------

Total pressure: 532.20      atmospheres          (Peng-Robinson calculation)
    Gas volume:   1.00e+00 liters
  Molar volume:   4.67e-02 liters/mole
   P * Vm / RT:  0.87076  (Compressibility Factor Z) 

                                                        Moles in gas
                                            ----------------------------------
Component         log P           P    phi     Initial       Final       Delta

CO2(g)             2.73   5.322e+02  0.365   0.000e+00   2.139e+01   2.139e+01

-----------------------------Solution composition------------------------------

	Elements           Molality       Moles

	C                 1.607e+00   1.607e+00

----------------------------Description of solution----------------------------

                                       pH  =   2.989      Charge balance
                                       pe  =  12.742      Adjusted to redox equilibrium
       Specific Conductance (uS/cm, 75 oC) = 967
                          Density (g/cm3)  =   0.99936
                        Activity of water  =   0.973
                           Ionic strength  =   1.068e-03
                       Mass of water (kg)  =   1.000e+00
                 Total alkalinity (eq/kg)  =   1.854e-06
                       Total CO2 (mol/kg)  =   1.607e+00
                      Temperature (deg C)  =  75.00
                           Pressure (atm)  = 532.20
                  Electrical balance (eq)  =  -1.854e-06
 Percent error, 100*(Cat-|An|)/(Cat+|An|)  =  -0.09
                               Iterations  =  48
                                  Total H  = 1.110124e+02
                                  Total O  = 5.871971e+01

----------------------------Distribution of species----------------------------

                                            Log       Log         Log     mole V
   Species          Molality    Activity  Molality  Activity     Gamma   cm3/mol

   H+              1.067e-03   1.027e-03    -2.972    -2.989    -0.017      0.00
   OH-             3.073e-10   2.950e-10    -9.512    -9.530    -0.018     -7.10
   H2O             5.551e+01   9.727e-01     1.744    -0.012     0.000     18.03
C(-4)         0.000e+00
   CH4             0.000e+00   0.000e+00  -107.767  -107.767     0.000     33.26
C(4)          1.607e+00
   CO2             1.606e+00   1.606e+00     0.206     0.206     0.000     25.84
   HCO3-           1.069e-03   1.027e-03    -2.971    -2.989    -0.017     25.15
   CO3-2           1.511e-10   1.287e-10    -9.821    -9.890    -0.070     -3.93
H(0)          2.205e-35
   H2              1.102e-35   1.103e-35   -34.958   -34.958     0.000     20.00
O(0)          2.072e-09
   O2              1.036e-09   1.036e-09    -8.985    -8.985     0.000     35.00

------------------------------Saturation indices-------------------------------

	Phase               SI   log IAP   log K(348 K, 532 atm)

	CH4(g)         -105.18   -107.77   -2.59  CH4
	CO2(g)            1.90      0.21   -1.70  CO2	 Pressure 532.2 atm, phi 0.365.
	H2(g)           -31.82    -34.96   -3.13  H2
	H2O(g)           -0.29     -0.01    0.28  H2O
	O2(g)            -5.60     -8.98   -3.39  O2


Reaction step 24.

Using solution 1.	pH 7 charge
Using gas phase 6.	
Using reaction 1.	

Reaction 1.	

	  2.400e+01 moles of the following reaction have been added:

	                 Relative
	Reactant            moles

	CO2                  1.00000

	                 Relative
	Element             moles
	C                    1.00000
	O                    2.00000

-----------------------------------Gas phase-----------------------------------

Total pressure: 616.95      atmospheres          (Peng-Robinson calculation)
    Gas volume:   1.00e+00 liters
  Molar volume:   4.48e-02 liters/mole
   P * Vm / RT:  0.96737  (Compressibility Factor Z) 

                                                        Moles in gas
                                            ----------------------------------
Component         log P           P    phi     Initial       Final       Delta

CO2(g)             2.79   6.170e+02  0.360   0.000e+00   2.232e+01   2.232e+01

-----------------------------Solution composition------------------------------

	Elements           Molality       Moles

	C                 1.677e+00   1.677e+00

----------------------------Description of solution----------------------------

                                       pH  =   2.964      Charge balance
                                       pe  =  12.763      Adjusted to redox equilibrium
       Specific Conductance (uS/cm, 75 oC) = 1023
                          Density (g/cm3)  =   1.00326
                        Activity of water  =   0.971
                           Ionic strength  =   1.131e-03
                       Mass of water (kg)  =   1.000e+00
                 Total alkalinity (eq/kg)  =   1.854e-06
                       Total CO2 (mol/kg)  =   1.677e+00
                      Temperature (deg C)  =  75.00
                           Pressure (atm)  = 616.95
                  Electrical balance (eq)  =  -1.854e-06
 Percent error, 100*(Cat-|An|)/(Cat+|An|)  =  -0.08
                               Iterations  =  77
                                  Total H  = 1.110124e+02
                                  Total O  = 5.885937e+01

----------------------------Distribution of species----------------------------

                                            Log       Log         Log     mole V
   Species          Molality    Activity  Molality  Activity     Gamma   cm3/mol

   H+              1.130e-03   1.086e-03    -2.947    -2.964    -0.017      0.00
   OH-             3.126e-10   2.997e-10    -9.505    -9.523    -0.018     -7.10
   H2O             5.551e+01   9.715e-01     1.744    -0.013     0.000     17.96
C(-4)         0.000e+00
   CH4             0.000e+00   0.000e+00  -107.773  -107.773     0.000     33.26
C(4)          1.677e+00
   CO2             1.675e+00   1.676e+00     0.224     0.224     0.000     26.60
   HCO3-           1.131e-03   1.086e-03    -2.946    -2.964    -0.018     25.15
   CO3-2           1.654e-10   1.403e-10    -9.781    -9.853    -0.072     -3.92
H(0)          2.104e-35
   H2              1.052e-35   1.052e-35   -34.978   -34.978     0.000     20.00
O(0)          2.015e-09
   O2              1.008e-09   1.008e-09    -8.997    -8.997     0.000     35.00

------------------------------Saturation indices-------------------------------

	Phase               SI   log IAP   log K(348 K, 617 atm)

	CH4(g)         -105.26   -107.77   -2.51  CH4
	CO2(g)            1.89      0.22   -1.67  CO2	 Pressure 617.0 atm, phi 0.360.
	H2(g)           -31.85    -34.98   -3.13  H2
	H2O(g)           -0.27     -0.01    0.25  H2O
	O2(g)            -5.56     -9.00   -3.43  O2


Reaction step 25.

Using solution 1.	pH 7 charge
Using gas phase 6.	
Using reaction 1.	

Reaction 1.	

	  2.500e+01 moles of the following reaction have been added:

	                 Relative
	Reactant            moles

	CO2                  1.00000

	                 Relative
	Element             moles
	C                    1.00000
	O                    2.00000

-----------------------------------Gas phase-----------------------------------

Total pressure: 719.68      atmospheres          (Peng-Robinson calculation)
    Gas volume:   1.00e+00 liters
  Molar volume:   4.30e-02 liters/mole
   P * Vm / RT:  1.08314  (Compressibility Factor Z) 

                                                        Moles in gas
                                            ----------------------------------
Component         log P           P    phi     Initial       Final       Delta

CO2(g)             2.86   7.197e+02  0.362   0.000e+00   2.326e+01   2.326e+01

-----------------------------Solution composition------------------------------

	Elements           Molality       Moles

	C                 1.743e+00   1.743e+00

----------------------------Description of solution----------------------------

                                       pH  =   2.936      Charge balance
                                       pe  =   2.206      Adjusted to redox equilibrium
       Specific Conductance (uS/cm, 75 oC) = 1092
                          Density (g/cm3)  =   1.00799
                        Activity of water  =   0.970
                           Ionic strength  =   1.207e-03
                       Mass of water (kg)  =   1.000e+00
                 Total alkalinity (eq/kg)  =   1.854e-06
                       Total CO2 (mol/kg)  =   1.743e+00
                      Temperature (deg C)  =  75.00
                           Pressure (atm)  = 719.68
                  Electrical balance (eq)  =  -1.854e-06
 Percent error, 100*(Cat-|An|)/(Cat+|An|)  =  -0.08
                               Iterations  =  68
                                  Total H  = 1.110124e+02
                                  Total O  = 5.899196e+01

----------------------------Distribution of species----------------------------

                                            Log       Log         Log     mole V
   Species          Molality    Activity  Molality  Activity     Gamma   cm3/mol

   H+              1.206e-03   1.158e-03    -2.919    -2.936    -0.018      0.00
   OH-             3.201e-10   3.065e-10    -9.495    -9.514    -0.019     -7.10
   H2O             5.551e+01   9.704e-01     1.744    -0.013     0.000     17.87
C(-4)         7.478e-24
   CH4             7.478e-24   7.480e-24   -23.126   -23.126     0.000     33.26
C(4)          1.743e+00
   CO2             1.742e+00   1.742e+00     0.241     0.241     0.000     27.53
   HCO3-           1.208e-03   1.158e-03    -2.918    -2.936    -0.018     25.16
   CO3-2           1.846e-10   1.557e-10    -9.734    -9.808    -0.074     -3.92
H(0)          2.902e-14
   H2              1.451e-14   1.451e-14   -13.838   -13.838     0.000     20.00
O(0)          0.000e+00
   O2              0.000e+00   0.000e+00   -51.340   -51.340     0.000     35.00

------------------------------Saturation indices-------------------------------

	Phase               SI   log IAP   log K(348 K, 720 atm)

	CH4(g)          -20.70    -23.13   -2.43  CH4
	CO2(g)            1.88      0.24   -1.64  CO2	 Pressure 719.7 atm, phi 0.362.
	H2(g)           -10.71    -13.84   -3.13  H2
	H2O(g)           -0.24     -0.01    0.23  H2O
	O2(g)           -47.85    -51.34   -3.49  O2


------------------
End of simulation.
------------------

------------------------------------
Reading input data for simulation 7.
------------------------------------

-----------
End of run.
-----------

