WARNING: Database file from DATABASE keyword is used; command line argument ignored.
   Input file: CO2_conc_PR_GP
  Output file: CO2_conc_PR_GP.out
Database file: ../database/phreeqc.dat

------------------
Reading data base.
------------------

	SOLUTION_MASTER_SPECIES
	SOLUTION_SPECIES
	PHASES
	EXCHANGE_MASTER_SPECIES
	EXCHANGE_SPECIES
	SURFACE_MASTER_SPECIES
	SURFACE_SPECIES
	RATES
	END
------------------------------------
Reading input data for simulation 1.
------------------------------------

	DATABASE ../database/phreeqc.dat
	SOLUTION 1 pH 7 charge
	GAS_PHASE 6
	    fixed_volume
	    CO2(g) 0
		H2O(g) 0
	USER_GRAPH
	 -chart_title "Using: GAS_PHASE with H2O(g)"
	 -plot_csv_file co2.dat
	 -axis_titles "Pressure / atm" "CO2 / (mol/kgw)"
	 -axis_scale x_axis 0 500
	 -axis_scale y_axis 0 2
	 -init true
	 10 x = PR_P("CO2(g)")
	 20 graph_x x
	 30 graph_y tot("C(4)")
	 -end
	REACTION
	 CO2 1
	 27 in 26
	END
-------------------------------------------
Beginning of initial solution calculations.
-------------------------------------------

Initial solution 1.	pH 7 charge

-----------------------------Solution composition------------------------------

	Elements           Molality       Moles

	Pure water     

----------------------------Description of solution----------------------------

                                       pH  =   7.000    
                                       pe  =   4.000    
       Specific Conductance (uS/cm, 25 oC) = 0
                          Density (g/cm3)  =   0.99704
                               Volume (L)  =   1.00297
                        Activity of water  =   1.000
                           Ionic strength  =   1.007e-07
                       Mass of water (kg)  =   1.000e+00
                 Total alkalinity (eq/kg)  =   1.217e-09
                    Total carbon (mol/kg)  =   0.000e+00
                       Total CO2 (mol/kg)  =   0.000e+00
                      Temperature (deg C)  =  25.00
                  Electrical balance (eq)  =  -1.217e-09
 Percent error, 100*(Cat-|An|)/(Cat+|An|)  =  -0.60
                               Iterations  =   0
                                  Total H  = 1.110124e+02
                                  Total O  = 5.550622e+01

----------------------------Distribution of species----------------------------

                                               Log       Log       Log    mole V
   Species          Molality    Activity  Molality  Activity     Gamma   cm3/mol

   OH-             1.013e-07   1.012e-07    -6.995    -6.995    -0.000     -4.14
   H+              1.001e-07   1.000e-07    -7.000    -7.000    -0.000      0.00
   H2O             5.551e+01   1.000e+00     1.744     0.000     0.000     18.07
H(0)          1.416e-25
   H2              7.079e-26   7.079e-26   -25.150   -25.150     0.000     28.61
O(0)          0.000e+00
   O2              0.000e+00   0.000e+00   -42.080   -42.080     0.000     30.40

------------------------------Saturation indices-------------------------------

	Phase               SI** log IAP   log K(298 K,   1 atm)

	H2(g)           -22.05    -25.15   -3.10  H2
	H2O(g)           -1.50      0.00    1.50  H2O
	O2(g)           -39.19    -42.08   -2.89  O2

**For a gas, SI = log10(fugacity). For ideal gases, fugacity = pressure / 1 atm.
For a Peng-Robinson gas, fugacity = pressure * phi / 1 atm

-----------------------------------------
Beginning of batch-reaction calculations.
-----------------------------------------

Reaction step 1.

Using solution 1.	pH 7 charge
Using gas phase 6.	
Using reaction 1.	

Reaction 1.	

	  1.038e+00 moles of the following reaction have been added:

	                 Relative
	Reactant            moles

	CO2                  1.00000

	                 Relative
	Element             moles
	C                    1.00000
	O                    2.00000

-----------------------------------Gas phase-----------------------------------

Total pressure: 13.71      atmospheres          (Peng-Robinson calculation)
    Gas volume:   1.00e+00 liters
  Molar volume:   1.64e+00 liters/mole
   P * Vm / RT:  0.92074  (Compressibility Factor Z) 

                                                        Moles in gas
                                            ----------------------------------
Component         log P           P    phi     Initial       Final       Delta

CO2(g)             1.14   1.368e+01  0.925   0.000e+00   6.071e-01   6.071e-01
H2O(g)            -1.44   3.604e-02  0.874   0.000e+00   1.600e-03   1.600e-03

-----------------------------Solution composition------------------------------

	Elements           Molality       Moles

	C                 4.313e-01   4.313e-01

----------------------------Description of solution----------------------------

                                       pH  =   3.358      Charge balance
                                       pe  =  14.533      Adjusted to redox equilibrium
       Specific Conductance (uS/cm, 25 oC) = 174
                          Density (g/cm3)  =   1.00397
                               Volume (L)  =   1.03598
                        Activity of water  =   0.993
                           Ionic strength  =   4.493e-04
                       Mass of water (kg)  =   1.000e+00
                 Total alkalinity (eq/kg)  =   1.216e-09
                       Total CO2 (mol/kg)  =   4.313e-01
                      Temperature (deg C)  =  25.00
                           Pressure (atm)  = 13.71
                  Electrical balance (eq)  =  -1.216e-09
 Percent error, 100*(Cat-|An|)/(Cat+|An|)  =  -0.00
                               Iterations  =  37
                                  Total H  = 1.110092e+02
                                  Total O  = 5.636725e+01

----------------------------Distribution of species----------------------------

                                               Log       Log       Log    mole V
   Species          Molality    Activity  Molality  Activity     Gamma   cm3/mol

   H+              4.493e-04   4.389e-04    -3.348    -3.358    -0.010      0.00
   OH-             2.373e-11   2.316e-11   -10.625   -10.635    -0.011     -4.07
   H2O             5.551e+01   9.927e-01     1.744    -0.003     0.000     18.06
C(-4)         0.000e+00
   CH4             0.000e+00   0.000e+00  -119.100  -119.100     0.000     32.22
C(4)          4.313e-01
   CO2             4.309e-01   4.309e-01    -0.366    -0.366     0.000     29.15
   HCO3-           4.493e-04   4.386e-04    -3.348    -3.358    -0.010     24.71
   CO3-2           5.240e-11   4.761e-11   -10.281   -10.322    -0.042     -5.42
H(0)          2.311e-39
   H2              1.156e-39   1.156e-39   -38.937   -38.937     0.000     28.60
O(0)          5.987e-15
   O2              2.993e-15   2.994e-15   -14.524   -14.524     0.000     30.38

------------------------------Saturation indices-------------------------------

	Phase               SI** log IAP   log K(298 K,  14 atm)

	CH4(g)         -116.25   -119.10   -2.85  CH4
	CO2(g)            1.10     -0.37   -1.47  CO2	 Pressure  13.7 atm, phi 0.925
	H2(g)           -35.83    -38.94   -3.11  H2
	H2O(g)           -1.50     -0.00    1.50  H2O	 Pressure   0.0 atm, phi 0.874
	O2(g)           -11.62    -14.52   -2.90  O2

**For a gas, SI = log10(fugacity). For ideal gases, fugacity = pressure / 1 atm.
For a Peng-Robinson gas, fugacity = pressure * phi / 1 atm

Reaction step 2.

Using solution 1.	pH 7 charge
Using gas phase 6.	
Using reaction 1.	

Reaction 1.	

	  2.077e+00 moles of the following reaction have been added:

	                 Relative
	Reactant            moles

	CO2                  1.00000

	                 Relative
	Element             moles
	C                    1.00000
	O                    2.00000

-----------------------------------Gas phase-----------------------------------

Total pressure: 26.83      atmospheres          (Peng-Robinson calculation)
    Gas volume:   1.00e+00 liters
  Molar volume:   7.64e-01 liters/mole
   P * Vm / RT:  0.83732  (Compressibility Factor Z) 

                                                        Moles in gas
                                            ----------------------------------
Component         log P           P    phi     Initial       Final       Delta

CO2(g)             1.43   2.679e+01  0.857   0.000e+00   1.308e+00   1.308e+00
H2O(g)            -1.38   4.173e-02  0.757   0.000e+00   2.037e-03   2.037e-03

-----------------------------Solution composition------------------------------

	Elements           Molality       Moles

	C                 7.694e-01   7.694e-01

----------------------------Description of solution----------------------------

                                       pH  =   3.231      Charge balance
                                       pe  =  14.555      Adjusted to redox equilibrium
       Specific Conductance (uS/cm, 25 oC) = 234
                          Density (g/cm3)  =   1.00938
                               Volume (L)  =   1.06157
                        Activity of water  =   0.987
                           Ionic strength  =   6.041e-04
                       Mass of water (kg)  =   1.000e+00
                 Total alkalinity (eq/kg)  =   1.216e-09
                       Total CO2 (mol/kg)  =   7.694e-01
                      Temperature (deg C)  =  25.00
                           Pressure (atm)  = 26.83
                  Electrical balance (eq)  =  -1.216e-09
 Percent error, 100*(Cat-|An|)/(Cat+|An|)  =  -0.00
                               Iterations  =  43
                                  Total H  = 1.110084e+02
                                  Total O  = 5.704294e+01

----------------------------Distribution of species----------------------------

                                               Log       Log       Log    mole V
   Species          Molality    Activity  Molality  Activity     Gamma   cm3/mol

   H+              6.041e-04   5.881e-04    -3.219    -3.231    -0.012      0.00
   OH-             1.788e-11   1.738e-11   -10.748   -10.760    -0.012     -4.02
   H2O             5.551e+01   9.869e-01     1.744    -0.006     0.000     18.05
C(-4)         0.000e+00
   CH4             0.000e+00   0.000e+00  -118.018  -118.018     0.000     32.22
C(4)          7.694e-01
   CO2             7.688e-01   7.689e-01    -0.114    -0.114     0.000     29.20
   HCO3-           6.042e-04   5.877e-04    -3.219    -3.231    -0.012     24.73
   CO3-2           5.402e-11   4.837e-11   -10.267   -10.315    -0.048     -5.27
H(0)          3.682e-39
   H2              1.841e-39   1.841e-39   -38.735   -38.735     0.000     28.59
O(0)          2.269e-15
   O2              1.134e-15   1.134e-15   -14.945   -14.945     0.000     30.36

------------------------------Saturation indices-------------------------------

	Phase               SI** log IAP   log K(298 K,  27 atm)

	CH4(g)         -115.16   -118.02   -2.86  CH4
	CO2(g)            1.36     -0.11   -1.47  CO2	 Pressure  26.8 atm, phi 0.857
	H2(g)           -35.62    -38.73   -3.11  H2
	H2O(g)           -1.50     -0.01    1.49  H2O	 Pressure   0.0 atm, phi 0.757
	O2(g)           -12.04    -14.95   -2.91  O2

**For a gas, SI = log10(fugacity). For ideal gases, fugacity = pressure / 1 atm.
For a Peng-Robinson gas, fugacity = pressure * phi / 1 atm

Reaction step 3.

Using solution 1.	pH 7 charge
Using gas phase 6.	
Using reaction 1.	

Reaction 1.	

	  3.115e+00 moles of the following reaction have been added:

	                 Relative
	Reactant            moles

	CO2                  1.00000

	                 Relative
	Element             moles
	C                    1.00000
	O                    2.00000

-----------------------------------Gas phase-----------------------------------

Total pressure: 38.67      atmospheres          (Peng-Robinson calculation)
    Gas volume:   1.00e+00 liters
  Molar volume:   4.76e-01 liters/mole
   P * Vm / RT:  0.75182  (Compressibility Factor Z) 

                                                        Moles in gas
                                            ----------------------------------
Component         log P           P    phi     Initial       Final       Delta

CO2(g)             1.59   3.862e+01  0.796   0.000e+00   2.100e+00   2.100e+00
H2O(g)            -1.31   4.853e-02  0.654   0.000e+00   2.638e-03   2.638e-03

-----------------------------Solution composition------------------------------

	Elements           Molality       Moles

	C                 1.016e+00   1.016e+00

----------------------------Description of solution----------------------------

                                       pH  =   3.169      Charge balance
                                       pe  =  14.735      Adjusted to redox equilibrium
       Specific Conductance (uS/cm, 25 oC) = 270
                          Density (g/cm3)  =   1.01333
                               Volume (L)  =   1.08004
                        Activity of water  =   0.983
                           Ionic strength  =   6.979e-04
                       Mass of water (kg)  =   9.999e-01
                 Total alkalinity (eq/kg)  =   1.216e-09
                       Total CO2 (mol/kg)  =   1.016e+00
                      Temperature (deg C)  =  25.00
                           Pressure (atm)  = 38.67
                  Electrical balance (eq)  =  -1.216e-09
 Percent error, 100*(Cat-|An|)/(Cat+|An|)  =  -0.00
                               Iterations  =  37
                                  Total H  = 1.110072e+02
                                  Total O  = 5.753520e+01

----------------------------Distribution of species----------------------------

                                               Log       Log       Log    mole V
   Species          Molality    Activity  Molality  Activity     Gamma   cm3/mol

   H+              6.979e-04   6.781e-04    -3.156    -3.169    -0.012      0.00
   OH-             1.564e-11   1.517e-11   -10.806   -10.819    -0.013     -3.97
   H2O             5.551e+01   9.827e-01     1.744    -0.008     0.000     18.04
C(-4)         0.000e+00
   CH4             0.000e+00   0.000e+00  -118.840  -118.840     0.000     32.22
C(4)          1.016e+00
   CO2             1.015e+00   1.015e+00     0.007     0.007     0.000     29.25
   HCO3-           6.979e-04   6.775e-04    -3.156    -3.169    -0.013     24.74
   CO3-2           5.523e-11   4.906e-11   -10.258   -10.309    -0.051     -5.14
H(0)          2.115e-39
   H2              1.058e-39   1.058e-39   -38.976   -38.976     0.000     28.59
O(0)          6.647e-15
   O2              3.324e-15   3.324e-15   -14.478   -14.478     0.000     30.35

------------------------------Saturation indices-------------------------------

	Phase               SI** log IAP   log K(298 K,  39 atm)

	CH4(g)         -115.98   -118.84   -2.86  CH4
	CO2(g)            1.49      0.01   -1.48  CO2	 Pressure  38.6 atm, phi 0.796
	H2(g)           -35.86    -38.98   -3.12  H2
	H2O(g)           -1.50     -0.01    1.49  H2O	 Pressure   0.0 atm, phi 0.654
	O2(g)           -11.57    -14.48   -2.91  O2

**For a gas, SI = log10(fugacity). For ideal gases, fugacity = pressure / 1 atm.
For a Peng-Robinson gas, fugacity = pressure * phi / 1 atm

Reaction step 4.

Using solution 1.	pH 7 charge
Using gas phase 6.	
Using reaction 1.	

Reaction 1.	

	  4.154e+00 moles of the following reaction have been added:

	                 Relative
	Reactant            moles

	CO2                  1.00000

	                 Relative
	Element             moles
	C                    1.00000
	O                    2.00000

-----------------------------------Gas phase-----------------------------------

Total pressure: 48.58      atmospheres          (Peng-Robinson calculation)
    Gas volume:   1.00e+00 liters
  Molar volume:   3.36e-01 liters/mole
   P * Vm / RT:  0.66720  (Compressibility Factor Z) 

                                                        Moles in gas
                                            ----------------------------------
Component         log P           P    phi     Initial       Final       Delta

CO2(g)             1.69   4.853e+01  0.745   0.000e+00   2.973e+00   2.973e+00
H2O(g)            -1.25   5.633e-02  0.566   0.000e+00   3.451e-03   3.451e-03

-----------------------------Solution composition------------------------------

	Elements           Molality       Moles

	C                 1.181e+00   1.181e+00

----------------------------Description of solution----------------------------

                                       pH  =   3.135      Charge balance
                                       pe  =  14.504      Adjusted to redox equilibrium
       Specific Conductance (uS/cm, 25 oC) = 292
                          Density (g/cm3)  =   1.01601
                               Volume (L)  =   1.09231
                        Activity of water  =   0.980
                           Ionic strength  =   7.558e-04
                       Mass of water (kg)  =   9.999e-01
                 Total alkalinity (eq/kg)  =   1.216e-09
                       Total CO2 (mol/kg)  =   1.181e+00
                      Temperature (deg C)  =  25.00
                           Pressure (atm)  = 48.58
                  Electrical balance (eq)  =  -1.216e-09
 Percent error, 100*(Cat-|An|)/(Cat+|An|)  =  -0.00
                               Iterations  =  35
                                  Total H  = 1.110055e+02
                                  Total O  = 5.786504e+01

----------------------------Distribution of species----------------------------

                                               Log       Log       Log    mole V
   Species          Molality    Activity  Molality  Activity     Gamma   cm3/mol

   H+              7.558e-04   7.336e-04    -3.122    -3.135    -0.013      0.00
   OH-             1.456e-11   1.411e-11   -10.837   -10.850    -0.014     -3.94
   H2O             5.551e+01   9.799e-01     1.744    -0.009     0.000     18.03
C(-4)         0.000e+00
   CH4             0.000e+00   0.000e+00  -116.662  -116.662     0.000     32.22
C(4)          1.181e+00
   CO2             1.180e+00   1.181e+00     0.072     0.072     0.000     29.29
   HCO3-           7.558e-04   7.329e-04    -3.122    -3.135    -0.013     24.75
   CO3-2           5.614e-11   4.965e-11   -10.251   -10.304    -0.053     -5.03
H(0)          7.072e-39
   H2              3.536e-39   3.536e-39   -38.452   -38.451     0.000     28.58
O(0)          5.791e-16
   O2              2.895e-16   2.896e-16   -15.538   -15.538     0.000     30.33

------------------------------Saturation indices-------------------------------

	Phase               SI** log IAP   log K(298 K,  49 atm)

	CH4(g)         -113.79   -116.66   -2.87  CH4
	CO2(g)            1.56      0.07   -1.49  CO2	 Pressure  48.5 atm, phi 0.745
	H2(g)           -35.33    -38.45   -3.13  H2
	H2O(g)           -1.50     -0.01    1.49  H2O	 Pressure   0.1 atm, phi 0.566
	O2(g)           -12.62    -15.54   -2.92  O2

**For a gas, SI = log10(fugacity). For ideal gases, fugacity = pressure / 1 atm.
For a Peng-Robinson gas, fugacity = pressure * phi / 1 atm

Reaction step 5.

Using solution 1.	pH 7 charge
Using gas phase 6.	
Using reaction 1.	

Reaction 1.	

	  5.192e+00 moles of the following reaction have been added:

	                 Relative
	Reactant            moles

	CO2                  1.00000

	                 Relative
	Element             moles
	C                    1.00000
	O                    2.00000

-----------------------------------Gas phase-----------------------------------

Total pressure: 56.15      atmospheres          (Peng-Robinson calculation)
    Gas volume:   1.00e+00 liters
  Molar volume:   2.55e-01 liters/mole
   P * Vm / RT:  0.58631  (Compressibility Factor Z) 

                                                        Moles in gas
                                            ----------------------------------
Component         log P           P    phi     Initial       Final       Delta

CO2(g)             1.75   5.609e+01  0.706   0.000e+00   3.910e+00   3.910e+00
H2O(g)            -1.19   6.487e-02  0.493   0.000e+00   4.522e-03   4.522e-03

-----------------------------Solution composition------------------------------

	Elements           Molality       Moles

	C                 1.282e+00   1.282e+00

----------------------------Description of solution----------------------------

                                       pH  =   3.116      Charge balance
                                       pe  =  14.755      Adjusted to redox equilibrium
       Specific Conductance (uS/cm, 25 oC) = 305
                          Density (g/cm3)  =   1.01770
                               Volume (L)  =   1.09973
                        Activity of water  =   0.978
                           Ionic strength  =   7.900e-04
                       Mass of water (kg)  =   9.999e-01
                 Total alkalinity (eq/kg)  =   1.217e-09
                       Total CO2 (mol/kg)  =   1.282e+00
                      Temperature (deg C)  =  25.00
                           Pressure (atm)  = 56.15
                  Electrical balance (eq)  =  -1.216e-09
 Percent error, 100*(Cat-|An|)/(Cat+|An|)  =  -0.00
                               Iterations  =  42
                                  Total H  = 1.110034e+02
                                  Total O  = 5.806608e+01

----------------------------Distribution of species----------------------------

                                               Log       Log       Log    mole V
   Species          Molality    Activity  Molality  Activity     Gamma   cm3/mol

   H+              7.900e-04   7.664e-04    -3.102    -3.116    -0.013      0.00
   OH-             1.401e-11   1.357e-11   -10.853   -10.867    -0.014     -3.91
   H2O             5.551e+01   9.782e-01     1.744    -0.010     0.000     18.02
C(-4)         0.000e+00
   CH4             0.000e+00   0.000e+00  -118.489  -118.489     0.000     32.22
C(4)          1.282e+00
   CO2             1.282e+00   1.282e+00     0.108     0.108     0.000     29.33
   HCO3-           7.900e-04   7.657e-04    -3.102    -3.116    -0.014     24.76
   CO3-2           5.679e-11   5.010e-11   -10.246   -10.300    -0.054     -4.95
H(0)          2.404e-39
   H2              1.202e-39   1.202e-39   -38.920   -38.920     0.000     28.58
O(0)          4.916e-15
   O2              2.458e-15   2.458e-15   -14.609   -14.609     0.000     30.32

------------------------------Saturation indices-------------------------------

	Phase               SI** log IAP   log K(298 K,  56 atm)

	CH4(g)         -115.61   -118.49   -2.87  CH4
	CO2(g)            1.60      0.11   -1.49  CO2	 Pressure  56.1 atm, phi 0.706
	H2(g)           -35.79    -38.92   -3.13  H2
	H2O(g)           -1.49     -0.01    1.49  H2O	 Pressure   0.1 atm, phi 0.493
	O2(g)           -11.69    -14.61   -2.92  O2

**For a gas, SI = log10(fugacity). For ideal gases, fugacity = pressure / 1 atm.
For a Peng-Robinson gas, fugacity = pressure * phi / 1 atm

Reaction step 6.

Using solution 1.	pH 7 charge
Using gas phase 6.	
Using reaction 1.	

Reaction 1.	

	  6.231e+00 moles of the following reaction have been added:

	                 Relative
	Reactant            moles

	CO2                  1.00000

	                 Relative
	Element             moles
	C                    1.00000
	O                    2.00000

-----------------------------------Gas phase-----------------------------------

Total pressure: 61.29      atmospheres          (Peng-Robinson calculation)
    Gas volume:   1.00e+00 liters
  Molar volume:   2.04e-01 liters/mole
   P * Vm / RT:  0.51133  (Compressibility Factor Z) 

                                                        Moles in gas
                                            ----------------------------------
Component         log P           P    phi     Initial       Final       Delta

CO2(g)             1.79   6.122e+01  0.679   0.000e+00   4.893e+00   4.893e+00
H2O(g)            -1.13   7.376e-02  0.435   0.000e+00   5.896e-03   5.896e-03

-----------------------------Solution composition------------------------------

	Elements           Molality       Moles

	C                 1.337e+00   1.337e+00

----------------------------Description of solution----------------------------

                                       pH  =   3.106      Charge balance
                                       pe  =  14.810      Adjusted to redox equilibrium
       Specific Conductance (uS/cm, 25 oC) = 312
                          Density (g/cm3)  =   1.01865
                               Volume (L)  =   1.10371
                        Activity of water  =   0.977
                           Ionic strength  =   8.087e-04
                       Mass of water (kg)  =   9.999e-01
                 Total alkalinity (eq/kg)  =   1.217e-09
                       Total CO2 (mol/kg)  =   1.337e+00
                      Temperature (deg C)  =  25.00
                           Pressure (atm)  = 61.29
                  Electrical balance (eq)  =  -1.216e-09
 Percent error, 100*(Cat-|An|)/(Cat+|An|)  =  -0.00
                               Iterations  =  50
                                  Total H  = 1.110006e+02
                                  Total O  = 5.817497e+01

----------------------------Distribution of species----------------------------

                                               Log       Log       Log    mole V
   Species          Molality    Activity  Molality  Activity     Gamma   cm3/mol

   H+              8.087e-04   7.842e-04    -3.092    -3.106    -0.013      0.00
   OH-             1.375e-11   1.331e-11   -10.862   -10.876    -0.014     -3.89
   H2O             5.551e+01   9.772e-01     1.744    -0.010     0.000     18.02
C(-4)         0.000e+00
   CH4             0.000e+00   0.000e+00  -118.833  -118.833     0.000     32.22
C(4)          1.337e+00
   CO2             1.337e+00   1.337e+00     0.126     0.126     0.000     29.35
   HCO3-           8.087e-04   7.834e-04    -3.092    -3.106    -0.014     24.77
   CO3-2           5.722e-11   5.040e-11   -10.242   -10.298    -0.055     -4.90
H(0)          1.943e-39
   H2              9.713e-40   9.715e-40   -39.013   -39.013     0.000     28.58
O(0)          7.431e-15
   O2              3.716e-15   3.716e-15   -14.430   -14.430     0.000     30.31

------------------------------Saturation indices-------------------------------

	Phase               SI** log IAP   log K(298 K,  61 atm)

	CH4(g)         -115.96   -118.83   -2.88  CH4
	CO2(g)            1.62      0.13   -1.49  CO2	 Pressure  61.2 atm, phi 0.679
	H2(g)           -35.88    -39.01   -3.13  H2
	H2O(g)           -1.49     -0.01    1.48  H2O	 Pressure   0.1 atm, phi 0.435
	O2(g)           -11.51    -14.43   -2.92  O2

**For a gas, SI = log10(fugacity). For ideal gases, fugacity = pressure / 1 atm.
For a Peng-Robinson gas, fugacity = pressure * phi / 1 atm

Reaction step 7.

WARNING: Numerical method failed, switching to numerical derivatives.
WARNING: Maximum iterations exceeded, 100

WARNING: Numerical method failed with this set of convergence parameters.

WARNING: Trying smaller step size, pe step size 10, 5 ... 

WARNING: Maximum iterations exceeded, 200

WARNING: Numerical method failed with this set of convergence parameters.

WARNING: Trying reduced tolerance 1e-16 ...

WARNING: Maximum iterations exceeded, 200

WARNING: Numerical method failed with this set of convergence parameters.

WARNING: Trying increased tolerance 1e-14 ...

Using solution 1.	pH 7 charge
Using gas phase 6.	
Using reaction 1.	

Reaction 1.	

	  7.269e+00 moles of the following reaction have been added:

	                 Relative
	Reactant            moles

	CO2                  1.00000

	                 Relative
	Element             moles
	C                    1.00000
	O                    2.00000

-----------------------------------Gas phase-----------------------------------

Total pressure: 64.18      atmospheres          (Peng-Robinson calculation)
    Gas volume:   1.00e+00 liters
  Molar volume:   1.69e-01 liters/mole
   P * Vm / RT:  0.44353  (Compressibility Factor Z) 

                                                        Moles in gas
                                            ----------------------------------
Component         log P           P    phi     Initial       Final       Delta

CO2(g)             1.81   6.410e+01  0.663   0.000e+00   5.907e+00   5.907e+00
H2O(g)            -1.08   8.262e-02  0.389   0.000e+00   7.614e-03   7.614e-03

-----------------------------Solution composition------------------------------

	Elements           Molality       Moles

	C                 1.363e+00   1.362e+00

----------------------------Description of solution----------------------------

                                       pH  =   3.101      Charge balance
                                       pe  =   0.882      Adjusted to redox equilibrium
       Specific Conductance (uS/cm, 25 oC) = 316
                          Density (g/cm3)  =   1.01910
                               Volume (L)  =   1.10549
                        Activity of water  =   0.977
                           Ionic strength  =   8.173e-04
                       Mass of water (kg)  =   9.998e-01
                 Total alkalinity (eq/kg)  =   1.217e-09
                       Total CO2 (mol/kg)  =   1.363e+00
                      Temperature (deg C)  =  25.00
                           Pressure (atm)  = 64.18
                  Electrical balance (eq)  =  -1.217e-09
 Percent error, 100*(Cat-|An|)/(Cat+|An|)  =  -0.00
                               Iterations  =  34
                                  Total H  = 1.109972e+02
                                  Total O  = 5.822359e+01

----------------------------Distribution of species----------------------------

                                               Log       Log       Log    mole V
   Species          Molality    Activity  Molality  Activity     Gamma   cm3/mol

   H+              8.173e-04   7.925e-04    -3.088    -3.101    -0.013      0.00
   OH-             1.364e-11   1.320e-11   -10.865   -10.879    -0.014     -3.88
   H2O             5.551e+01   9.768e-01     1.744    -0.010     0.000     18.02
C(-4)         4.303e-08
   CH4             4.303e-08   4.304e-08    -7.366    -7.366     0.000     32.22
C(4)          1.363e+00
   CO2             1.362e+00   1.362e+00     0.134     0.134     0.000     29.36
   HCO3-           8.173e-04   7.917e-04    -3.088    -3.101    -0.014     24.77
   CO3-2           5.745e-11   5.058e-11   -10.241   -10.296    -0.055     -4.87
H(0)          1.419e-11
   H2              7.096e-12   7.097e-12   -11.149   -11.149     0.000     28.58
O(0)          0.000e+00
   O2              0.000e+00   0.000e+00   -70.160   -70.160     0.000     30.31

------------------------------Saturation indices-------------------------------

	Phase               SI** log IAP   log K(298 K,  64 atm)

	CH4(g)           -4.49     -7.37   -2.88  CH4
	CO2(g)            1.63      0.13   -1.49  CO2	 Pressure  64.1 atm, phi 0.663
	H2(g)            -8.02    -11.15   -3.13  H2
	H2O(g)           -1.49     -0.01    1.48  H2O	 Pressure   0.1 atm, phi 0.389
	O2(g)           -67.23    -70.16   -2.93  O2

**For a gas, SI = log10(fugacity). For ideal gases, fugacity = pressure / 1 atm.
For a Peng-Robinson gas, fugacity = pressure * phi / 1 atm

Reaction step 8.

Using solution 1.	pH 7 charge
Using gas phase 6.	
Using reaction 1.	

Reaction 1.	

	  8.308e+00 moles of the following reaction have been added:

	                 Relative
	Reactant            moles

	CO2                  1.00000

	                 Relative
	Element             moles
	C                    1.00000
	O                    2.00000

-----------------------------------Gas phase-----------------------------------

Total pressure: 65.19      atmospheres          (Peng-Robinson calculation)
    Gas volume:   1.00e+00 liters
  Molar volume:   1.44e-01 liters/mole
   P * Vm / RT:  0.38350  (Compressibility Factor Z) 

                                                        Moles in gas
                                            ----------------------------------
Component         log P           P    phi     Initial       Final       Delta

CO2(g)             1.81   6.510e+01  0.657   0.000e+00   6.938e+00   6.938e+00
H2O(g)            -1.04   9.112e-02  0.353   0.000e+00   9.711e-03   9.711e-03

-----------------------------Solution composition------------------------------

	Elements           Molality       Moles

	C                 1.370e+00   1.370e+00

----------------------------Description of solution----------------------------

                                       pH  =   3.100      Charge balance
                                       pe  =  15.800      Adjusted to redox equilibrium
       Specific Conductance (uS/cm, 25 oC) = 317
                          Density (g/cm3)  =   1.01924
                               Volume (L)  =   1.10596
                        Activity of water  =   0.977
                           Ionic strength  =   8.199e-04
                       Mass of water (kg)  =   9.998e-01
                 Total alkalinity (eq/kg)  =   1.217e-09
                       Total CO2 (mol/kg)  =   1.370e+00
                      Temperature (deg C)  =  25.00
                           Pressure (atm)  = 65.19
                  Electrical balance (eq)  =  -1.217e-09
 Percent error, 100*(Cat-|An|)/(Cat+|An|)  =  -0.00
                               Iterations  =  96
                                  Total H  = 1.109930e+02
                                  Total O  = 5.823601e+01

----------------------------Distribution of species----------------------------

                                               Log       Log       Log    mole V
   Species          Molality    Activity  Molality  Activity     Gamma   cm3/mol

   H+              8.199e-04   7.949e-04    -3.086    -3.100    -0.013      0.00
   OH-             1.361e-11   1.317e-11   -10.866   -10.880    -0.014     -3.87
   H2O             5.551e+01   9.767e-01     1.744    -0.010     0.000     18.02
C(-4)         0.000e+00
   CH4             0.000e+00   0.000e+00  -126.694  -126.694     0.000     32.22
C(4)          1.370e+00
   CO2             1.369e+00   1.369e+00     0.136     0.137     0.000     29.36
   HCO3-           8.199e-04   7.941e-04    -3.086    -3.100    -0.014     24.77
   CO3-2           5.753e-11   5.064e-11   -10.240   -10.296    -0.055     -4.86
H(0)          0.000e+00
   H2              0.000e+00   0.000e+00   -40.982   -40.982     0.000     28.58
O(0)          6.387e-11
   O2              3.193e-11   3.194e-11   -10.496   -10.496     0.000     30.31

------------------------------Saturation indices-------------------------------

	Phase               SI** log IAP   log K(298 K,  65 atm)

	CH4(g)         -123.81   -126.69   -2.88  CH4
	CO2(g)            1.63      0.14   -1.49  CO2	 Pressure  65.1 atm, phi 0.657
	H2(g)           -37.85    -40.98   -3.13  H2
	H2O(g)           -1.49     -0.01    1.48  H2O	 Pressure   0.1 atm, phi 0.353
	O2(g)            -7.57    -10.50   -2.93  O2

**For a gas, SI = log10(fugacity). For ideal gases, fugacity = pressure / 1 atm.
For a Peng-Robinson gas, fugacity = pressure * phi / 1 atm

Reaction step 9.

Using solution 1.	pH 7 charge
Using gas phase 6.	
Using reaction 1.	

Reaction 1.	

	  9.346e+00 moles of the following reaction have been added:

	                 Relative
	Reactant            moles

	CO2                  1.00000

	                 Relative
	Element             moles
	C                    1.00000
	O                    2.00000

-----------------------------------Gas phase-----------------------------------

Total pressure: 65.19      atmospheres          (Peng-Robinson calculation)
    Gas volume:   1.00e+00 liters
  Molar volume:   1.25e-01 liters/mole
   P * Vm / RT:  0.33356  (Compressibility Factor Z) 

                                                        Moles in gas
                                            ----------------------------------
Component         log P           P    phi     Initial       Final       Delta

CO2(g)             1.81   6.509e+01  0.657   0.000e+00   7.977e+00   7.977e+00
H2O(g)            -1.00   9.957e-02  0.323   0.000e+00   1.220e-02   1.220e-02

-----------------------------Solution composition------------------------------

	Elements           Molality       Moles

	C                 1.370e+00   1.370e+00

----------------------------Description of solution----------------------------

                                       pH  =   3.100      Charge balance
                                       pe  =   1.254      Adjusted to redox equilibrium
       Specific Conductance (uS/cm, 25 oC) = 317
                          Density (g/cm3)  =   1.01924
                               Volume (L)  =   1.10591
                        Activity of water  =   0.977
                           Ionic strength  =   8.198e-04
                       Mass of water (kg)  =   9.998e-01
                 Total alkalinity (eq/kg)  =   1.217e-09
                       Total CO2 (mol/kg)  =   1.370e+00
                      Temperature (deg C)  =  25.00
                           Pressure (atm)  = 65.19
                  Electrical balance (eq)  =  -1.217e-09
 Percent error, 100*(Cat-|An|)/(Cat+|An|)  =  -0.00
                               Iterations  =  52
                                  Total H  = 1.109880e+02
                                  Total O  = 5.823326e+01

----------------------------Distribution of species----------------------------

                                               Log       Log       Log    mole V
   Species          Molality    Activity  Molality  Activity     Gamma   cm3/mol

   H+              8.198e-04   7.949e-04    -3.086    -3.100    -0.013      0.00
   OH-             1.361e-11   1.317e-11   -10.866   -10.880    -0.014     -3.87
   H2O             5.551e+01   9.767e-01     1.744    -0.010     0.000     18.02
C(-4)         4.740e-11
   CH4             4.740e-11   4.741e-11   -10.324   -10.324     0.000     32.22
C(4)          1.370e+00
   CO2             1.369e+00   1.369e+00     0.136     0.137     0.000     29.36
   HCO3-           8.198e-04   7.941e-04    -3.086    -3.100    -0.014     24.77
   CO3-2           5.753e-11   5.064e-11   -10.240   -10.296    -0.055     -4.86
H(0)          2.580e-12
   H2              1.290e-12   1.290e-12   -11.889   -11.889     0.000     28.58
O(0)          0.000e+00
   O2              0.000e+00   0.000e+00   -68.680   -68.680     0.000     30.31

------------------------------Saturation indices-------------------------------

	Phase               SI** log IAP   log K(298 K,  65 atm)

	CH4(g)           -7.44    -10.32   -2.88  CH4
	CO2(g)            1.63      0.14   -1.49  CO2	 Pressure  65.1 atm, phi 0.657
	H2(g)            -8.76    -11.89   -3.13  H2
	H2O(g)           -1.49     -0.01    1.48  H2O	 Pressure   0.1 atm, phi 0.323
	O2(g)           -65.75    -68.68   -2.93  O2

**For a gas, SI = log10(fugacity). For ideal gases, fugacity = pressure / 1 atm.
For a Peng-Robinson gas, fugacity = pressure * phi / 1 atm

Reaction step 10.

WARNING: Maximum iterations exceeded, 100

WARNING: Numerical method failed with this set of convergence parameters.

WARNING: Trying smaller step size, pe step size 10, 5 ... 

Using solution 1.	pH 7 charge
Using gas phase 6.	
Using reaction 1.	

Reaction 1.	

	  1.038e+01 moles of the following reaction have been added:

	                 Relative
	Reactant            moles

	CO2                  1.00000

	                 Relative
	Element             moles
	C                    1.00000
	O                    2.00000

-----------------------------------Gas phase-----------------------------------

Total pressure: 65.18      atmospheres          (Peng-Robinson calculation)
    Gas volume:   1.00e+00 liters
  Molar volume:   1.11e-01 liters/mole
   P * Vm / RT:  0.29499  (Compressibility Factor Z) 

                                                        Moles in gas
                                            ----------------------------------
Component         log P           P    phi     Initial       Final       Delta

CO2(g)             1.81   6.507e+01  0.657   0.000e+00   9.016e+00   9.016e+00
H2O(g)            -0.96   1.089e-01  0.296   0.000e+00   1.508e-02   1.508e-02

-----------------------------Solution composition------------------------------

	Elements           Molality       Moles

	C                 1.369e+00   1.369e+00

----------------------------Description of solution----------------------------

                                       pH  =   3.100      Charge balance
                                       pe  =  15.382      Adjusted to redox equilibrium
       Specific Conductance (uS/cm, 25 oC) = 316
                          Density (g/cm3)  =   1.01922
                               Volume (L)  =   1.10579
                        Activity of water  =   0.977
                           Ionic strength  =   8.196e-04
                       Mass of water (kg)  =   9.997e-01
                 Total alkalinity (eq/kg)  =   1.217e-09
                       Total CO2 (mol/kg)  =   1.369e+00
                      Temperature (deg C)  =  25.00
                           Pressure (atm)  = 65.18
                  Electrical balance (eq)  =  -1.217e-09
 Percent error, 100*(Cat-|An|)/(Cat+|An|)  =  -0.00
                               Iterations  =  53
                                  Total H  = 1.109823e+02
                                  Total O  = 5.822852e+01

----------------------------Distribution of species----------------------------

                                               Log       Log       Log    mole V
   Species          Molality    Activity  Molality  Activity     Gamma   cm3/mol

   H+              8.196e-04   7.946e-04    -3.086    -3.100    -0.013      0.00
   OH-             1.361e-11   1.318e-11   -10.866   -10.880    -0.014     -3.87
   H2O             5.551e+01   9.767e-01     1.744    -0.010     0.000     18.02
C(-4)         0.000e+00
   CH4             0.000e+00   0.000e+00  -123.350  -123.350     0.000     32.22
C(4)          1.369e+00
   CO2             1.368e+00   1.369e+00     0.136     0.136     0.000     29.36
   HCO3-           8.196e-04   7.939e-04    -3.086    -3.100    -0.014     24.77
   CO3-2           5.753e-11   5.064e-11   -10.240   -10.296    -0.055     -4.86
H(0)          0.000e+00
   H2              0.000e+00   0.000e+00   -40.146   -40.146     0.000     28.58
O(0)          1.360e-12
   O2              6.798e-13   6.799e-13   -12.168   -12.168     0.000     30.31

------------------------------Saturation indices-------------------------------

	Phase               SI** log IAP   log K(298 K,  65 atm)

	CH4(g)         -120.47   -123.35   -2.88  CH4
	CO2(g)            1.63      0.14   -1.49  CO2	 Pressure  65.1 atm, phi 0.657
	H2(g)           -37.01    -40.15   -3.13  H2
	H2O(g)           -1.49     -0.01    1.48  H2O	 Pressure   0.1 atm, phi 0.296
	O2(g)            -9.24    -12.17   -2.93  O2

**For a gas, SI = log10(fugacity). For ideal gases, fugacity = pressure / 1 atm.
For a Peng-Robinson gas, fugacity = pressure * phi / 1 atm

Reaction step 11.

Using solution 1.	pH 7 charge
Using gas phase 6.	
Using reaction 1.	

Reaction 1.	

	  1.142e+01 moles of the following reaction have been added:

	                 Relative
	Reactant            moles

	CO2                  1.00000

	                 Relative
	Element             moles
	C                    1.00000
	O                    2.00000

-----------------------------------Gas phase-----------------------------------

Total pressure: 65.16      atmospheres          (Peng-Robinson calculation)
    Gas volume:   1.00e+00 liters
  Molar volume:   9.93e-02 liters/mole
   P * Vm / RT:  0.26437  (Compressibility Factor Z) 

                                                        Moles in gas
                                            ----------------------------------
Component         log P           P    phi     Initial       Final       Delta

CO2(g)             1.81   6.504e+01  0.657   0.000e+00   1.006e+01   1.006e+01
H2O(g)            -0.92   1.190e-01  0.270   0.000e+00   1.840e-02   1.840e-02

-----------------------------Solution composition------------------------------

	Elements           Molality       Moles

	C                 1.367e+00   1.367e+00

----------------------------Description of solution----------------------------

                                       pH  =   3.100      Charge balance
                                       pe  =  15.748      Adjusted to redox equilibrium
       Specific Conductance (uS/cm, 25 oC) = 316
                          Density (g/cm3)  =   1.01920
                               Volume (L)  =   1.10559
                        Activity of water  =   0.977
                           Ionic strength  =   8.191e-04
                       Mass of water (kg)  =   9.997e-01
                 Total alkalinity (eq/kg)  =   1.217e-09
                       Total CO2 (mol/kg)  =   1.367e+00
                      Temperature (deg C)  =  25.00
                           Pressure (atm)  = 65.16
                  Electrical balance (eq)  =  -1.217e-09
 Percent error, 100*(Cat-|An|)/(Cat+|An|)  =  -0.00
                               Iterations  =  40
                                  Total H  = 1.109756e+02
                                  Total O  = 5.822171e+01

----------------------------Distribution of species----------------------------

                                               Log       Log       Log    mole V
   Species          Molality    Activity  Molality  Activity     Gamma   cm3/mol

   H+              8.191e-04   7.942e-04    -3.087    -3.100    -0.013      0.00
   OH-             1.362e-11   1.318e-11   -10.866   -10.880    -0.014     -3.87
   H2O             5.551e+01   9.767e-01     1.744    -0.010     0.000     18.02
C(-4)         0.000e+00
   CH4             0.000e+00   0.000e+00  -126.282  -126.282     0.000     32.22
C(4)          1.367e+00
   CO2             1.367e+00   1.367e+00     0.136     0.136     0.000     29.36
   HCO3-           8.191e-04   7.934e-04    -3.087    -3.101    -0.014     24.77
   CO3-2           5.752e-11   5.064e-11   -10.240   -10.296    -0.055     -4.86
H(0)          0.000e+00
   H2              0.000e+00   0.000e+00   -40.879   -40.879     0.000     28.58
O(0)          3.974e-11
   O2              1.987e-11   1.988e-11   -10.702   -10.702     0.000     30.31

------------------------------Saturation indices-------------------------------

	Phase               SI** log IAP   log K(298 K,  65 atm)

	CH4(g)         -123.40   -126.28   -2.88  CH4
	CO2(g)            1.63      0.14   -1.49  CO2	 Pressure  65.0 atm, phi 0.657
	H2(g)           -37.75    -40.88   -3.13  H2
	H2O(g)           -1.49     -0.01    1.48  H2O	 Pressure   0.1 atm, phi 0.270
	O2(g)            -7.77    -10.70   -2.93  O2

**For a gas, SI = log10(fugacity). For ideal gases, fugacity = pressure / 1 atm.
For a Peng-Robinson gas, fugacity = pressure * phi / 1 atm

Reaction step 12.

WARNING: Maximum iterations exceeded, 100

WARNING: Numerical method failed with this set of convergence parameters.

WARNING: Trying smaller step size, pe step size 10, 5 ... 

WARNING: Maximum iterations exceeded, 200

WARNING: Numerical method failed with this set of convergence parameters.

WARNING: Trying reduced tolerance 1e-16 ...

WARNING: Maximum iterations exceeded, 200

WARNING: Numerical method failed with this set of convergence parameters.

WARNING: Trying increased tolerance 1e-14 ...

Using solution 1.	pH 7 charge
Using gas phase 6.	
Using reaction 1.	

Reaction 1.	

	  1.246e+01 moles of the following reaction have been added:

	                 Relative
	Reactant            moles

	CO2                  1.00000

	                 Relative
	Element             moles
	C                    1.00000
	O                    2.00000

-----------------------------------Gas phase-----------------------------------

Total pressure: 65.15      atmospheres          (Peng-Robinson calculation)
    Gas volume:   1.00e+00 liters
  Molar volume:   8.99e-02 liters/mole
   P * Vm / RT:  0.23947  (Compressibility Factor Z) 

                                                        Moles in gas
                                            ----------------------------------
Component         log P           P    phi     Initial       Final       Delta

CO2(g)             1.81   6.501e+01  0.656   0.000e+00   1.110e+01   1.110e+01
H2O(g)            -0.89   1.301e-01  0.247   0.000e+00   2.221e-02   2.221e-02

-----------------------------Solution composition------------------------------

	Elements           Molality       Moles

	C                 1.365e+00   1.365e+00

----------------------------Description of solution----------------------------

                                       pH  =   3.100      Charge balance
                                       pe  =  15.867      Adjusted to redox equilibrium
       Specific Conductance (uS/cm, 25 oC) = 316
                          Density (g/cm3)  =   1.01917
                               Volume (L)  =   1.10535
                        Activity of water  =   0.977
                           Ionic strength  =   8.184e-04
                       Mass of water (kg)  =   9.996e-01
                 Total alkalinity (eq/kg)  =   1.217e-09
                       Total CO2 (mol/kg)  =   1.365e+00
                      Temperature (deg C)  =  25.00
                           Pressure (atm)  = 65.15
                  Electrical balance (eq)  =  -1.217e-09
 Percent error, 100*(Cat-|An|)/(Cat+|An|)  =  -0.00
                               Iterations  =  47
                                  Total H  = 1.109680e+02
                                  Total O  = 5.821331e+01

----------------------------Distribution of species----------------------------

                                               Log       Log       Log    mole V
   Species          Molality    Activity  Molality  Activity     Gamma   cm3/mol

   H+              8.184e-04   7.935e-04    -3.087    -3.100    -0.013      0.00
   OH-             1.363e-11   1.319e-11   -10.866   -10.880    -0.014     -3.87
   H2O             5.551e+01   9.768e-01     1.744    -0.010     0.000     18.02
C(-4)         0.000e+00
   CH4             0.000e+00   0.000e+00  -127.237  -127.237     0.000     32.22
C(4)          1.365e+00
   CO2             1.364e+00   1.365e+00     0.135     0.135     0.000     29.36
   HCO3-           8.184e-04   7.927e-04    -3.087    -3.101    -0.014     24.77
   CO3-2           5.752e-11   5.064e-11   -10.240   -10.296    -0.055     -4.86
H(0)          0.000e+00
   H2              0.000e+00   0.000e+00   -41.117   -41.117     0.000     28.58
O(0)          1.192e-10
   O2              5.962e-11   5.963e-11   -10.225   -10.225     0.000     30.31

------------------------------Saturation indices-------------------------------

	Phase               SI** log IAP   log K(298 K,  65 atm)

	CH4(g)         -124.36   -127.24   -2.88  CH4
	CO2(g)            1.63      0.14   -1.49  CO2	 Pressure  65.0 atm, phi 0.656
	H2(g)           -37.98    -41.12   -3.13  H2
	H2O(g)           -1.49     -0.01    1.48  H2O	 Pressure   0.1 atm, phi 0.247
	O2(g)            -7.30    -10.22   -2.93  O2

**For a gas, SI = log10(fugacity). For ideal gases, fugacity = pressure / 1 atm.
For a Peng-Robinson gas, fugacity = pressure * phi / 1 atm

Reaction step 13.

WARNING: Maximum iterations exceeded, 100

WARNING: Numerical method failed with this set of convergence parameters.

WARNING: Trying smaller step size, pe step size 10, 5 ... 

Using solution 1.	pH 7 charge
Using gas phase 6.	
Using reaction 1.	

Reaction 1.	

	  1.350e+01 moles of the following reaction have been added:

	                 Relative
	Reactant            moles

	CO2                  1.00000

	                 Relative
	Element             moles
	C                    1.00000
	O                    2.00000

-----------------------------------Gas phase-----------------------------------

Total pressure: 65.13      atmospheres          (Peng-Robinson calculation)
    Gas volume:   1.00e+00 liters
  Molar volume:   8.22e-02 liters/mole
   P * Vm / RT:  0.21883  (Compressibility Factor Z) 

                                                        Moles in gas
                                            ----------------------------------
Component         log P           P    phi     Initial       Final       Delta

CO2(g)             1.81   6.498e+01  0.655   0.000e+00   1.214e+01   1.214e+01
H2O(g)            -0.85   1.421e-01  0.226   0.000e+00   2.654e-02   2.654e-02

-----------------------------Solution composition------------------------------

	Elements           Molality       Moles

	C                 1.363e+00   1.362e+00

----------------------------Description of solution----------------------------

                                       pH  =   3.101      Charge balance
                                       pe  =  15.536      Adjusted to redox equilibrium
       Specific Conductance (uS/cm, 25 oC) = 316
                          Density (g/cm3)  =   1.01914
                               Volume (L)  =   1.10508
                        Activity of water  =   0.977
                           Ionic strength  =   8.177e-04
                       Mass of water (kg)  =   9.995e-01
                 Total alkalinity (eq/kg)  =   1.216e-09
                       Total CO2 (mol/kg)  =   1.363e+00
                      Temperature (deg C)  =  25.00
                           Pressure (atm)  = 65.13
                  Electrical balance (eq)  =  -1.216e-09
 Percent error, 100*(Cat-|An|)/(Cat+|An|)  =  -0.00
                               Iterations  = 101
                                  Total H  = 1.109594e+02
                                  Total O  = 5.820407e+01

----------------------------Distribution of species----------------------------

                                               Log       Log       Log    mole V
   Species          Molality    Activity  Molality  Activity     Gamma   cm3/mol

   H+              8.177e-04   7.929e-04    -3.087    -3.101    -0.013      0.00
   OH-             1.364e-11   1.321e-11   -10.865   -10.879    -0.014     -3.87
   H2O             5.551e+01   9.768e-01     1.744    -0.010     0.000     18.02
C(-4)         0.000e+00
   CH4             0.000e+00   0.000e+00  -124.594  -124.594     0.000     32.22
C(4)          1.363e+00
   CO2             1.362e+00   1.362e+00     0.134     0.134     0.000     29.36
   HCO3-           8.177e-04   7.921e-04    -3.087    -3.101    -0.014     24.77
   CO3-2           5.752e-11   5.063e-11   -10.240   -10.296    -0.055     -4.86
H(0)          0.000e+00
   H2              0.000e+00   0.000e+00   -40.456   -40.456     0.000     28.58
O(0)          5.680e-12
   O2              2.840e-12   2.840e-12   -11.547   -11.547     0.000     30.31

------------------------------Saturation indices-------------------------------

	Phase               SI** log IAP   log K(298 K,  65 atm)

	CH4(g)         -121.71   -124.59   -2.88  CH4
	CO2(g)            1.63      0.13   -1.49  CO2	 Pressure  65.0 atm, phi 0.655
	H2(g)           -37.32    -40.46   -3.13  H2
	H2O(g)           -1.49     -0.01    1.48  H2O	 Pressure   0.1 atm, phi 0.226
	O2(g)            -8.62    -11.55   -2.93  O2

**For a gas, SI = log10(fugacity). For ideal gases, fugacity = pressure / 1 atm.
For a Peng-Robinson gas, fugacity = pressure * phi / 1 atm

Reaction step 14.

WARNING: Maximum iterations exceeded, 100

WARNING: Numerical method failed with this set of convergence parameters.

WARNING: Trying smaller step size, pe step size 10, 5 ... 

Using solution 1.	pH 7 charge
Using gas phase 6.	
Using reaction 1.	

Reaction 1.	

	  1.454e+01 moles of the following reaction have been added:

	                 Relative
	Reactant            moles

	CO2                  1.00000

	                 Relative
	Element             moles
	C                    1.00000
	O                    2.00000

-----------------------------------Gas phase-----------------------------------

Total pressure: 65.10      atmospheres          (Peng-Robinson calculation)
    Gas volume:   1.00e+00 liters
  Molar volume:   7.57e-02 liters/mole
   P * Vm / RT:  0.20144  (Compressibility Factor Z) 

                                                        Moles in gas
                                            ----------------------------------
Component         log P           P    phi     Initial       Final       Delta

CO2(g)             1.81   6.495e+01  0.654   0.000e+00   1.318e+01   1.318e+01
H2O(g)            -0.81   1.549e-01  0.208   0.000e+00   3.144e-02   3.144e-02

-----------------------------Solution composition------------------------------

	Elements           Molality       Moles

	C                 1.361e+00   1.360e+00

----------------------------Description of solution----------------------------

                                       pH  =   3.101      Charge balance
                                       pe  =  16.185      Adjusted to redox equilibrium
       Specific Conductance (uS/cm, 25 oC) = 315
                          Density (g/cm3)  =   1.01911
                               Volume (L)  =   1.10483
                        Activity of water  =   0.977
                           Ionic strength  =   8.171e-04
                       Mass of water (kg)  =   9.994e-01
                 Total alkalinity (eq/kg)  =   1.217e-09
                       Total CO2 (mol/kg)  =   1.361e+00
                      Temperature (deg C)  =  25.00
                           Pressure (atm)  = 65.10
                  Electrical balance (eq)  =  -1.217e-09
 Percent error, 100*(Cat-|An|)/(Cat+|An|)  =  -0.00
                               Iterations  =  55
                                  Total H  = 1.109496e+02
                                  Total O  = 5.819484e+01

----------------------------Distribution of species----------------------------

                                               Log       Log       Log    mole V
   Species          Molality    Activity  Molality  Activity     Gamma   cm3/mol

   H+              8.171e-04   7.923e-04    -3.088    -3.101    -0.013      0.00
   OH-             1.365e-11   1.322e-11   -10.865   -10.879    -0.014     -3.87
   H2O             5.551e+01   9.769e-01     1.744    -0.010     0.000     18.02
C(-4)         0.000e+00
   CH4             0.000e+00   0.000e+00  -129.790  -129.790     0.000     32.22
C(4)          1.361e+00
   CO2             1.360e+00   1.360e+00     0.134     0.134     0.000     29.36
   HCO3-           8.171e-04   7.915e-04    -3.088    -3.102    -0.014     24.77
   CO3-2           5.751e-11   5.063e-11   -10.240   -10.296    -0.055     -4.86
H(0)          0.000e+00
   H2              0.000e+00   0.000e+00   -41.755   -41.755     0.000     28.58
O(0)          2.249e-09
   O2              1.125e-09   1.125e-09    -8.949    -8.949     0.000     30.31

------------------------------Saturation indices-------------------------------

	Phase               SI** log IAP   log K(298 K,  65 atm)

	CH4(g)         -126.91   -129.79   -2.88  CH4
	CO2(g)            1.63      0.13   -1.49  CO2	 Pressure  65.0 atm, phi 0.654
	H2(g)           -38.62    -41.75   -3.13  H2
	H2O(g)           -1.49     -0.01    1.48  H2O	 Pressure   0.2 atm, phi 0.208
	O2(g)            -6.02     -8.95   -2.93  O2

**For a gas, SI = log10(fugacity). For ideal gases, fugacity = pressure / 1 atm.
For a Peng-Robinson gas, fugacity = pressure * phi / 1 atm

Reaction step 15.

Using solution 1.	pH 7 charge
Using gas phase 6.	
Using reaction 1.	

Reaction 1.	

	  1.558e+01 moles of the following reaction have been added:

	                 Relative
	Reactant            moles

	CO2                  1.00000

	                 Relative
	Element             moles
	C                    1.00000
	O                    2.00000

-----------------------------------Gas phase-----------------------------------

Total pressure: 65.08      atmospheres          (Peng-Robinson calculation)
    Gas volume:   1.00e+00 liters
  Molar volume:   7.01e-02 liters/mole
   P * Vm / RT:  0.18661  (Compressibility Factor Z) 

                                                        Moles in gas
                                            ----------------------------------
Component         log P           P    phi     Initial       Final       Delta

CO2(g)             1.81   6.491e+01  0.654   0.000e+00   1.422e+01   1.422e+01
H2O(g)            -0.77   1.687e-01  0.191   0.000e+00   3.694e-02   3.694e-02

-----------------------------Solution composition------------------------------

	Elements           Molality       Moles

	C                 1.360e+00   1.359e+00

----------------------------Description of solution----------------------------

                                       pH  =   3.101      Charge balance
                                       pe  =   0.965      Adjusted to redox equilibrium
       Specific Conductance (uS/cm, 25 oC) = 315
                          Density (g/cm3)  =   1.01909
                               Volume (L)  =   1.10462
                        Activity of water  =   0.977
                           Ionic strength  =   8.167e-04
                       Mass of water (kg)  =   9.993e-01
                 Total alkalinity (eq/kg)  =   1.217e-09
                       Total CO2 (mol/kg)  =   1.360e+00
                      Temperature (deg C)  =  25.00
                           Pressure (atm)  = 65.08
                  Electrical balance (eq)  =  -1.217e-09
 Percent error, 100*(Cat-|An|)/(Cat+|An|)  =  -0.00
                               Iterations  =  43
                                  Total H  = 1.109385e+02
                                  Total O  = 5.818647e+01

----------------------------Distribution of species----------------------------

                                               Log       Log       Log    mole V
   Species          Molality    Activity  Molality  Activity     Gamma   cm3/mol

   H+              8.167e-04   7.919e-04    -3.088    -3.101    -0.013      0.00
   OH-             1.366e-11   1.322e-11   -10.865   -10.879    -0.014     -3.87
   H2O             5.551e+01   9.769e-01     1.744    -0.010     0.000     18.02
C(-4)         9.265e-09
   CH4             9.265e-09   9.267e-09    -8.033    -8.033     0.000     32.22
C(4)          1.360e+00
   CO2             1.359e+00   1.359e+00     0.133     0.133     0.000     29.36
   HCO3-           8.167e-04   7.911e-04    -3.088    -3.102    -0.014     24.77
   CO3-2           5.751e-11   5.063e-11   -10.240   -10.296    -0.055     -4.86
H(0)          9.667e-12
   H2              4.833e-12   4.834e-12   -11.316   -11.316     0.000     28.58
O(0)          0.000e+00
   O2              0.000e+00   0.000e+00   -69.828   -69.827     0.000     30.31

------------------------------Saturation indices-------------------------------

	Phase               SI** log IAP   log K(298 K,  65 atm)

	CH4(g)           -5.15     -8.03   -2.88  CH4
	CO2(g)            1.63      0.13   -1.49  CO2	 Pressure  64.9 atm, phi 0.654
	H2(g)            -8.18    -11.32   -3.13  H2
	H2O(g)           -1.49     -0.01    1.48  H2O	 Pressure   0.2 atm, phi 0.191
	O2(g)           -66.90    -69.83   -2.93  O2

**For a gas, SI = log10(fugacity). For ideal gases, fugacity = pressure / 1 atm.
For a Peng-Robinson gas, fugacity = pressure * phi / 1 atm

Reaction step 16.

Using solution 1.	pH 7 charge
Using gas phase 6.	
Using reaction 1.	

Reaction 1.	

	  1.662e+01 moles of the following reaction have been added:

	                 Relative
	Reactant            moles

	CO2                  1.00000

	                 Relative
	Element             moles
	C                    1.00000
	O                    2.00000

-----------------------------------Gas phase-----------------------------------

Total pressure: 67.83      atmospheres          (Peng-Robinson calculation)
    Gas volume:   1.00e+00 liters
  Molar volume:   6.54e-02 liters/mole
   P * Vm / RT:  0.18126  (Compressibility Factor Z) 

                                                        Moles in gas
                                            ----------------------------------
Component         log P           P    phi     Initial       Final       Delta

CO2(g)             1.83   6.764e+01  0.632   0.000e+00   1.525e+01   1.525e+01
H2O(g)            -0.72   1.903e-01  0.169   0.000e+00   4.291e-02   4.291e-02

-----------------------------Solution composition------------------------------

	Elements           Molality       Moles

	C                 1.365e+00   1.364e+00

----------------------------Description of solution----------------------------

                                       pH  =   3.100      Charge balance
                                       pe  =  16.153      Adjusted to redox equilibrium
       Specific Conductance (uS/cm, 25 oC) = 316
                          Density (g/cm3)  =   1.01927
                               Volume (L)  =   1.10480
                        Activity of water  =   0.977
                           Ionic strength  =   8.194e-04
                       Mass of water (kg)  =   9.992e-01
                 Total alkalinity (eq/kg)  =   1.217e-09
                       Total CO2 (mol/kg)  =   1.365e+00
                      Temperature (deg C)  =  25.00
                           Pressure (atm)  = 67.83
                  Electrical balance (eq)  =  -1.217e-09
 Percent error, 100*(Cat-|An|)/(Cat+|An|)  =  -0.00
                               Iterations  =  69
                                  Total H  = 1.109266e+02
                                  Total O  = 5.819105e+01

----------------------------Distribution of species----------------------------

                                               Log       Log       Log    mole V
   Species          Molality    Activity  Molality  Activity     Gamma   cm3/mol

   H+              8.194e-04   7.944e-04    -3.087    -3.100    -0.013      0.00
   OH-             1.365e-11   1.321e-11   -10.865   -10.879    -0.014     -3.86
   H2O             5.551e+01   9.768e-01     1.744    -0.010     0.000     18.02
C(-4)         0.000e+00
   CH4             0.000e+00   0.000e+00  -129.525  -129.525     0.000     32.22
C(4)          1.365e+00
   CO2             1.364e+00   1.364e+00     0.135     0.135     0.000     29.37
   HCO3-           8.194e-04   7.937e-04    -3.087    -3.100    -0.014     24.77
   CO3-2           5.771e-11   5.080e-11   -10.239   -10.294    -0.055     -4.83
H(0)          0.000e+00
   H2              0.000e+00   0.000e+00   -41.690   -41.690     0.000     28.57
O(0)          1.659e-09
   O2              8.294e-10   8.295e-10    -9.081    -9.081     0.000     30.30

------------------------------Saturation indices-------------------------------

	Phase               SI** log IAP   log K(298 K,  68 atm)

	CH4(g)         -126.64   -129.53   -2.88  CH4
	CO2(g)            1.63      0.13   -1.50  CO2	 Pressure  67.6 atm, phi 0.632
	H2(g)           -38.56    -41.69   -3.13  H2
	H2O(g)           -1.49     -0.01    1.48  H2O	 Pressure   0.2 atm, phi 0.169
	O2(g)            -6.15     -9.08   -2.93  O2

**For a gas, SI = log10(fugacity). For ideal gases, fugacity = pressure / 1 atm.
For a Peng-Robinson gas, fugacity = pressure * phi / 1 atm

Reaction step 17.

Using solution 1.	pH 7 charge
Using gas phase 6.	
Using reaction 1.	

Reaction 1.	

	  1.765e+01 moles of the following reaction have been added:

	                 Relative
	Reactant            moles

	CO2                  1.00000

	                 Relative
	Element             moles
	C                    1.00000
	O                    2.00000

-----------------------------------Gas phase-----------------------------------

Total pressure: 76.59      atmospheres          (Peng-Robinson calculation)
    Gas volume:   1.00e+00 liters
  Molar volume:   6.13e-02 liters/mole
   P * Vm / RT:  0.19179  (Compressibility Factor Z) 

                                                        Moles in gas
                                            ----------------------------------
Component         log P           P    phi     Initial       Final       Delta

CO2(g)             1.88   7.636e+01  0.573   0.000e+00   1.627e+01   1.627e+01
H2O(g)            -0.64   2.305e-01  0.141   0.000e+00   4.912e-02   4.912e-02

-----------------------------Solution composition------------------------------

	Elements           Molality       Moles

	C                 1.381e+00   1.380e+00

----------------------------Description of solution----------------------------

                                       pH  =   3.096      Charge balance
                                       pe  =  15.704      Adjusted to redox equilibrium
       Specific Conductance (uS/cm, 25 oC) = 320
                          Density (g/cm3)  =   1.01983
                               Volume (L)  =   1.10558
                        Activity of water  =   0.977
                           Ionic strength  =   8.277e-04
                       Mass of water (kg)  =   9.991e-01
                 Total alkalinity (eq/kg)  =   1.218e-09
                       Total CO2 (mol/kg)  =   1.381e+00
                      Temperature (deg C)  =  25.00
                           Pressure (atm)  = 76.59
                  Electrical balance (eq)  =  -1.217e-09
 Percent error, 100*(Cat-|An|)/(Cat+|An|)  =  -0.00
                               Iterations  =  75
                                  Total H  = 1.109142e+02
                                  Total O  = 5.821753e+01

----------------------------Distribution of species----------------------------

                                               Log       Log       Log    mole V
   Species          Molality    Activity  Molality  Activity     Gamma   cm3/mol

   H+              8.277e-04   8.024e-04    -3.082    -3.096    -0.013      0.00
   OH-             1.361e-11   1.318e-11   -10.866   -10.880    -0.014     -3.83
   H2O             5.551e+01   9.765e-01     1.744    -0.010     0.000     18.01
C(-4)         0.000e+00
   CH4             0.000e+00   0.000e+00  -125.900  -125.900     0.000     32.22
C(4)          1.381e+00
   CO2             1.381e+00   1.381e+00     0.140     0.140     0.000     29.41
   HCO3-           8.277e-04   8.016e-04    -3.082    -3.096    -0.014     24.78
   CO3-2           5.834e-11   5.133e-11   -10.234   -10.290    -0.056     -4.74
H(0)          0.000e+00
   H2              0.000e+00   0.000e+00   -40.788   -40.788     0.000     28.57
O(0)          2.557e-11
   O2              1.278e-11   1.279e-11   -10.893   -10.893     0.000     30.29

------------------------------Saturation indices-------------------------------

	Phase               SI** log IAP   log K(298 K,  77 atm)

	CH4(g)         -123.01   -125.90   -2.89  CH4
	CO2(g)            1.64      0.14   -1.50  CO2	 Pressure  76.4 atm, phi 0.573
	H2(g)           -37.65    -40.79   -3.14  H2
	H2O(g)           -1.49     -0.01    1.48  H2O	 Pressure   0.2 atm, phi 0.141
	O2(g)            -7.96    -10.89   -2.93  O2

**For a gas, SI = log10(fugacity). For ideal gases, fugacity = pressure / 1 atm.
For a Peng-Robinson gas, fugacity = pressure * phi / 1 atm

Reaction step 18.

WARNING: Maximum iterations exceeded, 100

WARNING: Numerical method failed with this set of convergence parameters.

WARNING: Trying smaller step size, pe step size 10, 5 ... 

Using solution 1.	pH 7 charge
Using gas phase 6.	
Using reaction 1.	

Reaction 1.	

	  1.869e+01 moles of the following reaction have been added:

	                 Relative
	Reactant            moles

	CO2                  1.00000

	                 Relative
	Element             moles
	C                    1.00000
	O                    2.00000

-----------------------------------Gas phase-----------------------------------

Total pressure: 89.83      atmospheres          (Peng-Robinson calculation)
    Gas volume:   1.00e+00 liters
  Molar volume:   5.77e-02 liters/mole
   P * Vm / RT:  0.21166  (Compressibility Factor Z) 

                                                        Moles in gas
                                            ----------------------------------
Component         log P           P    phi     Initial       Final       Delta

CO2(g)             1.95   8.954e+01  0.505   0.000e+00   1.729e+01   1.729e+01
H2O(g)            -0.54   2.884e-01  0.114   0.000e+00   5.569e-02   5.569e-02

-----------------------------Solution composition------------------------------

	Elements           Molality       Moles

	C                 1.404e+00   1.402e+00

----------------------------Description of solution----------------------------

                                       pH  =   3.090      Charge balance
                                       pe  =  16.262      Adjusted to redox equilibrium
       Specific Conductance (uS/cm, 25 oC) = 324
                          Density (g/cm3)  =   1.02063
                               Volume (L)  =   1.10661
                        Activity of water  =   0.976
                           Ionic strength  =   8.395e-04
                       Mass of water (kg)  =   9.990e-01
                 Total alkalinity (eq/kg)  =   1.218e-09
                       Total CO2 (mol/kg)  =   1.404e+00
                      Temperature (deg C)  =  25.00
                           Pressure (atm)  = 89.83
                  Electrical balance (eq)  =  -1.217e-09
 Percent error, 100*(Cat-|An|)/(Cat+|An|)  =  -0.00
                               Iterations  =  47
                                  Total H  = 1.109010e+02
                                  Total O  = 5.825526e+01

----------------------------Distribution of species----------------------------

                                               Log       Log       Log    mole V
   Species          Molality    Activity  Molality  Activity     Gamma   cm3/mol

   H+              8.395e-04   8.137e-04    -3.076    -3.090    -0.014      0.00
   OH-             1.358e-11   1.314e-11   -10.867   -10.881    -0.014     -3.79
   H2O             5.551e+01   9.761e-01     1.744    -0.010     0.000     18.00
C(-4)         0.000e+00
   CH4             0.000e+00   0.000e+00  -130.314  -130.314     0.000     32.22
C(4)          1.404e+00
   CO2             1.403e+00   1.403e+00     0.147     0.147     0.000     29.47
   HCO3-           8.395e-04   8.129e-04    -3.076    -3.090    -0.014     24.80
   CO3-2           5.930e-11   5.213e-11   -10.227   -10.283    -0.056     -4.61
H(0)          0.000e+00
   H2              0.000e+00   0.000e+00   -41.898   -41.898     0.000     28.56
O(0)          4.119e-09
   O2              2.060e-09   2.060e-09    -8.686    -8.686     0.000     30.27

------------------------------Saturation indices-------------------------------

	Phase               SI** log IAP   log K(298 K,  90 atm)

	CH4(g)         -127.42   -130.31   -2.89  CH4
	CO2(g)            1.65      0.15   -1.51  CO2	 Pressure  89.5 atm, phi 0.505
	H2(g)           -38.75    -41.90   -3.15  H2
	H2O(g)           -1.48     -0.01    1.47  H2O	 Pressure   0.3 atm, phi 0.114
	O2(g)            -5.75     -8.69   -2.94  O2

**For a gas, SI = log10(fugacity). For ideal gases, fugacity = pressure / 1 atm.
For a Peng-Robinson gas, fugacity = pressure * phi / 1 atm

Reaction step 19.

Using solution 1.	pH 7 charge
Using gas phase 6.	
Using reaction 1.	

Reaction 1.	

	  1.973e+01 moles of the following reaction have been added:

	                 Relative
	Reactant            moles

	CO2                  1.00000

	                 Relative
	Element             moles
	C                    1.00000
	O                    2.00000

-----------------------------------Gas phase-----------------------------------

Total pressure: 108.62      atmospheres          (Peng-Robinson calculation)
    Gas volume:   1.00e+00 liters
  Molar volume:   5.45e-02 liters/mole
   P * Vm / RT:  0.24177  (Compressibility Factor Z) 

                                                        Moles in gas
                                            ----------------------------------
Component         log P           P    phi     Initial       Final       Delta

CO2(g)             2.03   1.082e+02  0.436   0.000e+00   1.830e+01   1.830e+01
H2O(g)            -0.43   3.699e-01  0.090   0.000e+00   6.254e-02   6.254e-02

-----------------------------Solution composition------------------------------

	Elements           Molality       Moles

	C                 1.432e+00   1.431e+00

----------------------------Description of solution----------------------------

                                       pH  =   3.081      Charge balance
                                       pe  =   2.511      Adjusted to redox equilibrium
       Specific Conductance (uS/cm, 25 oC) = 330
                          Density (g/cm3)  =   1.02173
                               Volume (L)  =   1.10788
                        Activity of water  =   0.976
                           Ionic strength  =   8.555e-04
                       Mass of water (kg)  =   9.989e-01
                 Total alkalinity (eq/kg)  =   1.218e-09
                       Total CO2 (mol/kg)  =   1.432e+00
                      Temperature (deg C)  =  25.00
                           Pressure (atm)  = 108.62
                  Electrical balance (eq)  =  -1.217e-09
 Percent error, 100*(Cat-|An|)/(Cat+|An|)  =  -0.00
                               Iterations  =  65
                                  Total H  = 1.108874e+02
                                  Total O  = 5.830498e+01

----------------------------Distribution of species----------------------------

                                               Log       Log       Log    mole V
   Species          Molality    Activity  Molality  Activity     Gamma   cm3/mol

   H+              8.555e-04   8.290e-04    -3.068    -3.081    -0.014      0.00
   OH-             1.355e-11   1.311e-11   -10.868   -10.883    -0.014     -3.72
   H2O             5.551e+01   9.756e-01     1.744    -0.011     0.000     17.98
C(-4)         5.641e-21
   CH4             5.641e-21   5.642e-21   -20.249   -20.249     0.000     32.22
C(4)          1.432e+00
   CO2             1.431e+00   1.432e+00     0.156     0.156     0.000     29.54
   HCO3-           8.555e-04   8.281e-04    -3.068    -3.082    -0.014     24.82
   CO3-2           6.067e-11   5.328e-11   -10.217   -10.273    -0.056     -4.43
H(0)          8.143e-15
   H2              4.072e-15   4.073e-15   -14.390   -14.390     0.000     28.56
O(0)          0.000e+00
   O2              0.000e+00   0.000e+00   -63.719   -63.719     0.000     30.25

------------------------------Saturation indices-------------------------------

	Phase               SI** log IAP   log K(298 K, 109 atm)

	CH4(g)          -17.34    -20.25   -2.90  CH4
	CO2(g)            1.67      0.16   -1.52  CO2	 Pressure 108.2 atm, phi 0.436
	H2(g)           -11.23    -14.39   -3.16  H2
	H2O(g)           -1.48     -0.01    1.47  H2O	 Pressure   0.4 atm, phi 0.090
	O2(g)           -60.77    -63.72   -2.95  O2

**For a gas, SI = log10(fugacity). For ideal gases, fugacity = pressure / 1 atm.
For a Peng-Robinson gas, fugacity = pressure * phi / 1 atm

Reaction step 20.

Using solution 1.	pH 7 charge
Using gas phase 6.	
Using reaction 1.	

Reaction 1.	

	  2.077e+01 moles of the following reaction have been added:

	                 Relative
	Reactant            moles

	CO2                  1.00000

	                 Relative
	Element             moles
	C                    1.00000
	O                    2.00000

[...]

**For a gas, SI = log10(fugacity). For ideal gases, fugacity = pressure / 1 atm.
For a Peng-Robinson gas, fugacity = pressure * phi / 1 atm

Reaction step 21.

Using solution 1.	pH 7 charge
Using gas phase 6.	
Using reaction 1.	

Reaction 1.	

	  2.100e+01 moles of the following reaction have been added:

	                 Relative
	Reactant            moles

	CO2                  1.00000

	                 Relative
	Element             moles
	C                    1.00000
	O                    2.00000

-----------------------------------Gas phase-----------------------------------

Total pressure: 531.49      atmospheres          (Peng-Robinson calculation)
    Gas volume:   1.00e+00 liters
  Molar volume:   5.03e-02 liters/mole
   P * Vm / RT:  0.87311  (Compressibility Factor Z) 

                                                        Moles in gas
                                            ----------------------------------
Component         log P           P    phi     Initial       Final       Delta

CO2(g)             2.72   5.193e+02  0.456   0.000e+00   1.942e+01   1.942e+01
H2O(g)             1.09   1.224e+01  0.108   0.000e+00   4.578e-01   4.578e-01

-----------------------------Solution composition------------------------------

	Elements           Molality       Moles

	C                 1.591e+00   1.578e+00

----------------------------Description of solution----------------------------

                                       pH  =   3.042      Charge balance
                                       pe  =  11.411      Adjusted to redox equilibrium
       Specific Conductance (uS/cm, 100 oC) = 1145
                          Density (g/cm3)  =   1.00620
                               Volume (L)  =   1.13152
                        Activity of water  =   0.973
                           Ionic strength  =   9.453e-04
                       Mass of water (kg)  =   9.917e-01
                 Total alkalinity (eq/kg)  =   5.738e-06
                       Total CO2 (mol/kg)  =   1.591e+00
                      Temperature (deg C)  = 100.00
                           Pressure (atm)  = 531.49
                  Electrical balance (eq)  =  -5.690e-06
 Percent error, 100*(Cat-|An|)/(Cat+|An|)  =  -0.30
                               Iterations  =  81
                                  Total H  = 1.100968e+02
                                  Total O  = 5.820459e+01

----------------------------Distribution of species----------------------------

                                               Log       Log       Log    mole V
   Species          Molality    Activity  Molality  Activity     Gamma   cm3/mol

   H+              9.425e-04   9.078e-04    -3.026    -3.042    -0.016      0.00
   OH-             1.014e-09   9.749e-10    -8.994    -9.011    -0.017     -7.86
   H2O             5.551e+01   9.729e-01     1.744    -0.012     0.000     18.35
C(-4)         0.000e+00
   CH4             0.000e+00   0.000e+00  -100.209  -100.209     0.000     32.22
C(4)          1.591e+00
   CO2             1.590e+00   1.591e+00     0.201     0.202     0.000     28.29
   HCO3-           9.482e-04   9.121e-04    -3.023    -3.040    -0.017     26.04
   CO3-2           1.514e-10   1.296e-10    -9.820    -9.887    -0.067     -9.30
H(0)          5.918e-33
   H2              2.959e-33   2.960e-33   -32.529   -32.529     0.000     28.35
O(0)          7.938e-09
   O2              3.969e-09   3.970e-09    -8.401    -8.401     0.000     32.40

------------------------------Saturation indices-------------------------------

	Phase               SI** log IAP   log K(373 K, 531 atm)

	CH4(g)          -96.90   -100.21   -3.31  CH4
	CO2(g)            2.37      0.20   -2.17  CO2	 Pressure 519.3 atm, phi 0.456
	H2(g)           -29.21    -32.53   -3.31  H2
	H2O(g)            0.12     -0.01   -0.13  H2O	 Pressure  12.2 atm, phi 0.108
	O2(g)            -5.04     -8.40   -3.36  O2

**For a gas, SI = log10(fugacity). For ideal gases, fugacity = pressure / 1 atm.
For a Peng-Robinson gas, fugacity = pressure * phi / 1 atm

Reaction step 22.

Using solution 1.	pH 7 charge
Using gas phase 6.	
Using reaction 1.	

Reaction 1.	

	  2.200e+01 moles of the following reaction have been added:

	                 Relative
	Reactant            moles

	CO2                  1.00000

	                 Relative
	Element             moles
	C                    1.00000
	O                    2.00000

-----------------------------------Gas phase-----------------------------------

Total pressure: 606.61      atmospheres          (Peng-Robinson calculation)
    Gas volume:   1.00e+00 liters
  Molar volume:   4.80e-02 liters/mole
   P * Vm / RT:  0.95041  (Compressibility Factor Z) 

                                                        Moles in gas
                                            ----------------------------------
Component         log P           P    phi     Initial       Final       Delta

CO2(g)             2.77   5.927e+02  0.452   0.000e+00   2.036e+01   2.036e+01
H2O(g)             1.14   1.395e+01  0.099   0.000e+00   4.795e-01   4.795e-01

-----------------------------Solution composition------------------------------

	Elements           Molality       Moles

	C                 1.649e+00   1.635e+00

----------------------------Description of solution----------------------------

                                       pH  =   3.021      Charge balance
                                       pe  =   2.063      Adjusted to redox equilibrium
       Specific Conductance (uS/cm, 100 oC) = 1203
                          Density (g/cm3)  =   1.00873
                               Volume (L)  =   1.13357
                        Activity of water  =   0.972
                           Ionic strength  =   9.936e-04
                       Mass of water (kg)  =   9.913e-01
                 Total alkalinity (eq/kg)  =   5.740e-06
                       Total CO2 (mol/kg)  =   1.649e+00
                      Temperature (deg C)  = 100.00
                           Pressure (atm)  = 606.61
                  Electrical balance (eq)  =  -5.690e-06
 Percent error, 100*(Cat-|An|)/(Cat+|An|)  =  -0.29
                               Iterations  =  50
                                  Total H  = 1.100534e+02
                                  Total O  = 5.829699e+01

----------------------------Distribution of species----------------------------

                                               Log       Log       Log    mole V
   Species          Molality    Activity  Molality  Activity     Gamma   cm3/mol

   H+              9.907e-04   9.536e-04    -3.004    -3.021    -0.017      0.00
   OH-             1.033e-09   9.919e-10    -8.986    -9.004    -0.018     -8.08
   H2O             5.551e+01   9.719e-01     1.744    -0.012     0.000     18.29
C(-4)         5.356e-26
   CH4             5.356e-26   5.357e-26   -25.271   -25.271     0.000     32.22
C(4)          1.649e+00
   CO2             1.648e+00   1.649e+00     0.217     0.217     0.000     29.15
   HCO3-           9.964e-04   9.578e-04    -3.002    -3.019    -0.017     26.20
   CO3-2           1.630e-10   1.392e-10    -9.788    -9.856    -0.069     -8.37
H(0)          3.028e-14
   H2              1.514e-14   1.514e-14   -13.820   -13.820     0.000     28.33
O(0)          0.000e+00
   O2              0.000e+00   0.000e+00   -45.875   -45.875     0.000     32.23

------------------------------Saturation indices-------------------------------

	Phase               SI** log IAP   log K(373 K, 607 atm)

	CH4(g)          -21.93    -25.27   -3.34  CH4
	CO2(g)            2.43      0.22   -2.21  CO2	 Pressure 592.7 atm, phi 0.452
	H2(g)           -10.48    -13.82   -3.34  H2
	H2O(g)            0.14     -0.01   -0.15  H2O	 Pressure  14.0 atm, phi 0.099
	O2(g)           -42.48    -45.88   -3.39  O2

**For a gas, SI = log10(fugacity). For ideal gases, fugacity = pressure / 1 atm.
For a Peng-Robinson gas, fugacity = pressure * phi / 1 atm

Reaction step 23.

Using solution 1.	pH 7 charge
Using gas phase 6.	
Using reaction 1.	

Reaction 1.	

	  2.300e+01 moles of the following reaction have been added:

	                 Relative
	Reactant            moles

	CO2                  1.00000

	                 Relative
	Element             moles
	C                    1.00000
	O                    2.00000

-----------------------------------Gas phase-----------------------------------

Total pressure: 696.47      atmospheres          (Peng-Robinson calculation)
    Gas volume:   1.00e+00 liters
  Molar volume:   4.58e-02 liters/mole
   P * Vm / RT:  1.04284  (Compressibility Factor Z) 

                                                        Moles in gas
                                            ----------------------------------
Component         log P           P    phi     Initial       Final       Delta

CO2(g)             2.83   6.806e+02  0.452   0.000e+00   2.131e+01   2.131e+01
H2O(g)             1.20   1.592e+01  0.091   0.000e+00   4.984e-01   4.984e-01

-----------------------------Solution composition------------------------------

	Elements           Molality       Moles

	C                 1.703e+00   1.688e+00

----------------------------Description of solution----------------------------

                                       pH  =   2.997      Charge balance
                                       pe  =  11.346      Adjusted to redox equilibrium
       Specific Conductance (uS/cm, 100 oC) = 1272
                          Density (g/cm3)  =   1.01141
                               Volume (L)  =   1.13505
                        Activity of water  =   0.971
                           Ionic strength  =   1.050e-03
                       Mass of water (kg)  =   9.910e-01
                 Total alkalinity (eq/kg)  =   5.742e-06
                       Total CO2 (mol/kg)  =   1.703e+00
                      Temperature (deg C)  = 100.00
                           Pressure (atm)  = 696.47
                  Electrical balance (eq)  =  -5.690e-06
 Percent error, 100*(Cat-|An|)/(Cat+|An|)  =  -0.27
                               Iterations  =  50
                                  Total H  = 1.100156e+02
                                  Total O  = 5.838302e+01

----------------------------Distribution of species----------------------------

                                               Log       Log       Log    mole V
   Species          Molality    Activity  Molality  Activity     Gamma   cm3/mol

   H+              1.048e-03   1.008e-03    -2.980    -2.997    -0.017      0.00
   OH-             1.060e-09   1.018e-09    -8.975    -8.992    -0.018     -8.33
   H2O             5.551e+01   9.710e-01     1.744    -0.013     0.000     18.22
C(-4)         0.000e+00
   CH4             0.000e+00   0.000e+00   -99.366   -99.366     0.000     32.22
C(4)          1.703e+00
   CO2             1.702e+00   1.702e+00     0.231     0.231     0.000     30.12
   HCO3-           1.053e-03   1.012e-03    -2.977    -2.995    -0.018     26.38
   CO3-2           1.774e-10   1.509e-10    -9.751    -9.821    -0.070     -7.30
H(0)          8.472e-33
   H2              4.236e-33   4.237e-33   -32.373   -32.373     0.000     28.30
O(0)          2.924e-09
   O2              1.462e-09   1.462e-09    -8.835    -8.835     0.000     32.03

------------------------------Saturation indices-------------------------------

	Phase               SI** log IAP   log K(373 K, 696 atm)

	CH4(g)          -95.98    -99.37   -3.38  CH4
	CO2(g)            2.49      0.23   -2.26  CO2	 Pressure 680.6 atm, phi 0.452
	H2(g)           -28.99    -32.37   -3.38  H2
	H2O(g)            0.16     -0.01   -0.17  H2O	 Pressure  15.9 atm, phi 0.091
	O2(g)            -5.40     -8.83   -3.43  O2

**For a gas, SI = log10(fugacity). For ideal gases, fugacity = pressure / 1 atm.
For a Peng-Robinson gas, fugacity = pressure * phi / 1 atm

Reaction step 24.

Using solution 1.	pH 7 charge
Using gas phase 6.	
Using reaction 1.	

Reaction 1.	

	  2.400e+01 moles of the following reaction have been added:

	                 Relative
	Reactant            moles

	CO2                  1.00000

	                 Relative
	Element             moles
	C                    1.00000
	O                    2.00000

-----------------------------------Gas phase-----------------------------------

Total pressure: 805.01      atmospheres          (Peng-Robinson calculation)
    Gas volume:   1.00e+00 liters
  Molar volume:   4.39e-02 liters/mole
   P * Vm / RT:  1.15391  (Compressibility Factor Z) 

                                                        Moles in gas
                                            ----------------------------------
Component         log P           P    phi     Initial       Final       Delta

CO2(g)             2.90   7.869e+02  0.459   0.000e+00   2.227e+01   2.227e+01
H2O(g)             1.26   1.816e+01  0.085   0.000e+00   5.139e-01   5.139e-01

-----------------------------Solution composition------------------------------

	Elements           Molality       Moles

	C                 1.747e+00   1.730e+00

----------------------------Description of solution----------------------------

                                       pH  =   2.970      Charge balance
                                       pe  =  11.371      Adjusted to redox equilibrium
       Specific Conductance (uS/cm, 100 oC) = 1354
                          Density (g/cm3)  =   1.01427
                               Volume (L)  =   1.13551
                        Activity of water  =   0.970
                           Ionic strength  =   1.119e-03
                       Mass of water (kg)  =   9.907e-01
                 Total alkalinity (eq/kg)  =   5.744e-06
                       Total CO2 (mol/kg)  =   1.747e+00
                      Temperature (deg C)  = 100.00
                           Pressure (atm)  = 805.01
                  Electrical balance (eq)  =  -5.690e-06
 Percent error, 100*(Cat-|An|)/(Cat+|An|)  =  -0.26
                               Iterations  =  56
                                  Total H  = 1.099846e+02
                                  Total O  = 5.845331e+01

----------------------------Distribution of species----------------------------

                                               Log       Log       Log    mole V
   Species          Molality    Activity  Molality  Activity     Gamma   cm3/mol

   H+              1.116e-03   1.072e-03    -2.952    -2.970    -0.017      0.00
   OH-             1.101e-09   1.055e-09    -8.958    -8.977    -0.018     -8.61
   H2O             5.551e+01   9.703e-01     1.744    -0.013     0.000     18.15
C(-4)         0.000e+00
   CH4             0.000e+00   0.000e+00   -99.385   -99.384     0.000     32.22
C(4)          1.747e+00
   CO2             1.746e+00   1.746e+00     0.242     0.242     0.000     31.23
   HCO3-           1.122e-03   1.076e-03    -2.950    -2.968    -0.018     26.59
   CO3-2           1.953e-10   1.655e-10    -9.709    -9.781    -0.072     -6.08
H(0)          7.733e-33
   H2              3.867e-33   3.868e-33   -32.413   -32.413     0.000     28.27
O(0)          2.922e-09
   O2              1.461e-09   1.461e-09    -8.835    -8.835     0.000     31.81

------------------------------Saturation indices-------------------------------

	Phase               SI** log IAP   log K(373 K, 805 atm)

	CH4(g)          -95.95    -99.38   -3.43  CH4
	CO2(g)            2.56      0.24   -2.32  CO2	 Pressure 786.9 atm, phi 0.459
	H2(g)           -28.99    -32.41   -3.42  H2
	H2O(g)            0.19     -0.01   -0.20  H2O	 Pressure  18.2 atm, phi 0.085
	O2(g)            -5.36     -8.84   -3.48  O2

**For a gas, SI = log10(fugacity). For ideal gases, fugacity = pressure / 1 atm.
For a Peng-Robinson gas, fugacity = pressure * phi / 1 atm

Reaction step 25.

Using solution 1.	pH 7 charge
Using gas phase 6.	
Using reaction 1.	

Reaction 1.	

	  2.500e+01 moles of the following reaction have been added:

	                 Relative
	Reactant            moles

	CO2                  1.00000

	                 Relative
	Element             moles
	C                    1.00000
	O                    2.00000

-----------------------------------Gas phase-----------------------------------

Total pressure: 937.98      atmospheres          (Peng-Robinson calculation)
    Gas volume:   1.00e+00 liters
  Molar volume:   4.21e-02 liters/mole
   P * Vm / RT:  1.28874  (Compressibility Factor Z) 

                                                        Moles in gas
                                            ----------------------------------
Component         log P           P    phi     Initial       Final       Delta

CO2(g)             2.96   9.173e+02  0.476   0.000e+00   2.324e+01   2.324e+01
H2O(g)             1.32   2.072e+01  0.080   0.000e+00   5.251e-01   5.251e-01

-----------------------------Solution composition------------------------------

	Elements           Molality       Moles

	C                 1.773e+00   1.756e+00

----------------------------Description of solution----------------------------

                                       pH  =   2.939      Charge balance
                                       pe  =  11.182      Adjusted to redox equilibrium
       Specific Conductance (uS/cm, 100 oC) = 1454
                          Density (g/cm3)  =   1.01734
                               Volume (L)  =   1.13422
                        Activity of water  =   0.970
                           Ionic strength  =   1.202e-03
                       Mass of water (kg)  =   9.905e-01
                 Total alkalinity (eq/kg)  =   5.745e-06
                       Total CO2 (mol/kg)  =   1.773e+00
                      Temperature (deg C)  = 100.00
                           Pressure (atm)  = 937.98
                  Electrical balance (eq)  =  -5.690e-06
 Percent error, 100*(Cat-|An|)/(Cat+|An|)  =  -0.24
                               Iterations  =  62
                                  Total H  = 1.099622e+02
                                  Total O  = 5.849318e+01

----------------------------Distribution of species----------------------------

                                               Log       Log       Log    mole V
   Species          Molality    Activity  Molality  Activity     Gamma   cm3/mol

   H+              1.199e-03   1.151e-03    -2.921    -2.939    -0.018      0.00
   OH-             1.160e-09   1.111e-09    -8.935    -8.954    -0.019     -8.92
   H2O             5.551e+01   9.698e-01     1.744    -0.013     0.000     18.05
C(-4)         0.000e+00
   CH4             0.000e+00   0.000e+00   -97.674   -97.673     0.000     32.22
C(4)          1.773e+00
   CO2             1.772e+00   1.772e+00     0.248     0.248     0.000     32.49
   HCO3-           1.205e-03   1.155e-03    -2.919    -2.937    -0.018     26.83
   CO3-2           2.181e-10   1.840e-10    -9.661    -9.735    -0.074     -4.69
H(0)          1.881e-32
   H2              9.404e-33   9.406e-33   -32.027   -32.027     0.000     28.23
O(0)          3.954e-10
   O2              1.977e-10   1.978e-10    -9.704    -9.704     0.000     31.56

------------------------------Saturation indices-------------------------------

	Phase               SI** log IAP   log K(373 K, 938 atm)

	CH4(g)          -94.18    -97.67   -3.49  CH4
	CO2(g)            2.64      0.25   -2.39  CO2	 Pressure 917.3 atm, phi 0.476
	H2(g)           -28.55    -32.03   -3.48  H2
	H2O(g)            0.22     -0.01   -0.23  H2O	 Pressure  20.7 atm, phi 0.080
	O2(g)            -6.17     -9.70   -3.53  O2

**For a gas, SI = log10(fugacity). For ideal gases, fugacity = pressure / 1 atm.
For a Peng-Robinson gas, fugacity = pressure * phi / 1 atm

------------------
End of simulation.
------------------

------------------------------------
Reading input data for simulation 7.
------------------------------------

------------------------------
End of Run after 0.57 Seconds.
------------------------------

