   Input file: colt3
  Output file: colt3.out
Database file: ../database/Amm.dat

------------------
Reading data base.
------------------

	SOLUTION_MASTER_SPECIES
	SOLUTION_SPECIES
	PHASES
	EXCHANGE_MASTER_SPECIES
	EXCHANGE_SPECIES
	SURFACE_MASTER_SPECIES
	SURFACE_SPECIES
	RATES
	END
------------------------------------
Reading input data for simulation 1.
------------------------------------

	DATABASE ../database/Amm.dat
	SOLUTION 0    # 1 mmol/l NaCl
		units	mmol/l
		pH	 7.0
		pe	13.0	O2(g)	-0.7
		Na	 1.0	# Na has Retardation = 2
		Cl	 1.0	# Cl has Retardation = 1, stagnant exchange
		N(5)	 1.0	# NO3 is conservative
	END
-------------------------------------------
Beginning of initial solution calculations.
-------------------------------------------

Initial solution 0.	

-----------------------------Solution composition------------------------------

	Elements           Molality       Moles

	Cl                1.000e-03   1.000e-03
	N(5)              1.000e-03   1.000e-03
	Na                1.000e-03   1.000e-03

----------------------------Description of solution----------------------------

                                       pH  =   7.000    
                                       pe  =  13.622      Equilibrium with O2(g)
       Specific Conductance (uS/cm, 25 oC) = 192
                          Density (g/cm3)  =   0.99712
                        Activity of water  =   1.000
                           Ionic strength  =   1.500e-03
                       Mass of water (kg)  =   1.000e+00
                 Total alkalinity (eq/kg)  =   5.099e-10
                    Total carbon (mol/kg)  =   0.000e+00
                       Total CO2 (mol/kg)  =   0.000e+00
                      Temperature (deg C)  =  25.00
                  Electrical balance (eq)  =  -1.000e-03
 Percent error, 100*(Cat-|An|)/(Cat+|An|)  = -33.33
                               Iterations  =   3
                                  Total H  = 1.110124e+02
                                  Total O  = 5.550973e+01

----------------------------Distribution of species----------------------------

                                               Log       Log       Log    mole V
   Species          Molality    Activity  Molality  Activity     Gamma   cm3/mol

   OH-             1.047e-07   1.002e-07    -6.980    -6.999    -0.019     -4.07
   H+              1.042e-07   1.000e-07    -6.982    -7.000    -0.018      0.00
   H2O             5.551e+01   9.999e-01     1.744    -0.000     0.000     18.07
Cl            1.000e-03
   Cl-             1.000e-03   9.575e-04    -3.000    -3.019    -0.019     18.07
H(0)          0.000e+00
   H2              0.000e+00   0.000e+00   -44.394   -44.394     0.000     28.61
N(5)          1.000e-03
   NO3-            1.000e-03   9.572e-04    -3.000    -3.019    -0.019     29.46
Na            1.000e-03
   Na+             1.000e-03   9.580e-04    -3.000    -3.019    -0.019     -1.19
   NaOH            9.597e-21   9.600e-21   -20.018   -20.018     0.000     (0)  
O(0)          5.110e-04
   O2              2.555e-04   2.556e-04    -3.593    -3.592     0.000     30.40

------------------------------Saturation indices-------------------------------

	Phase               SI   log IAP   log K(298 K,   1 atm)

	H2(g)           -41.29    -44.39   -3.10  H2
	H2O(g)           -1.50     -0.00    1.50  H2O
	Halite           -7.62     -6.04    1.58  NaCl
	O2(g)            -0.70     -3.59   -2.89  O2	 Pressure   0.2 atm, phi 1.000.


------------------
End of simulation.
------------------

------------------------------------
Reading input data for simulation 2.
------------------------------------

	SOLUTION 1-41  # Column with KNO3
		units	mmol/l
		pH	 7.0
		pe	13.0   O2(g)	-0.7
		K 	 1.0
		N(5)	 1.0
	EXCHANGE_SPECIES # For linear exchange, make KX exch. coeff. equal to NaX
		K+ + X- = KX
		log_k	0.0
		gamma	3.5	0.015
	EXCHANGE 1-41
		equilibrate	1
		X	1.e-3
	END
-------------------------------------------
Beginning of initial solution calculations.
-------------------------------------------

Initial solution 1.	

-----------------------------Solution composition------------------------------

	Elements           Molality       Moles

	K                 1.000e-03   1.000e-03
	N(5)              1.000e-03   1.000e-03

----------------------------Description of solution----------------------------

                                       pH  =   7.000    
                                       pe  =  13.622      Equilibrium with O2(g)
       Specific Conductance (uS/cm, 25 oC) = 141
                          Density (g/cm3)  =   0.99711
                        Activity of water  =   1.000
                           Ionic strength  =   1.000e-03
                       Mass of water (kg)  =   1.000e+00
                 Total alkalinity (eq/kg)  =   4.521e-10
                    Total carbon (mol/kg)  =   0.000e+00
                       Total CO2 (mol/kg)  =   0.000e+00
                      Temperature (deg C)  =  25.00
                  Electrical balance (eq)  =  -4.521e-10
 Percent error, 100*(Cat-|An|)/(Cat+|An|)  =  -0.00
                               Iterations  =   3
                                  Total H  = 1.110124e+02
                                  Total O  = 5.550973e+01

----------------------------Distribution of species----------------------------

                                               Log       Log       Log    mole V
   Species          Molality    Activity  Molality  Activity     Gamma   cm3/mol

   OH-             1.039e-07   1.002e-07    -6.983    -6.999    -0.016     -4.08
   H+              1.035e-07   1.000e-07    -6.985    -7.000    -0.015      0.00
   H2O             5.551e+01   1.000e+00     1.744    -0.000     0.000     18.07
H(0)          0.000e+00
   H2              0.000e+00   0.000e+00   -44.394   -44.394     0.000     28.61
K             1.000e-03
   K+              1.000e-03   9.649e-04    -3.000    -3.016    -0.016      8.93
   KOH             3.345e-11   3.345e-11   -10.476   -10.476     0.000     (0)  
N(5)          1.000e-03
   NO3-            1.000e-03   9.647e-04    -3.000    -3.016    -0.016     29.45
O(0)          5.111e-04
   O2              2.555e-04   2.556e-04    -3.593    -3.592     0.000     30.40

------------------------------Saturation indices-------------------------------

	Phase               SI   log IAP   log K(298 K,   1 atm)

	H2(g)           -41.29    -44.39   -3.10  H2
	H2O(g)           -1.50     -0.00    1.50  H2O
	O2(g)            -0.70     -3.59   -2.89  O2	 Pressure   0.2 atm, phi 1.000.


-------------------------------------------------------
Beginning of initial exchange-composition calculations.
-------------------------------------------------------

Exchange 1.	

X                1.000e-03 mol

	                               Equiv-    Equivalent      Log 
	Species             Moles      alents      Fraction     Gamma

	KX                1.000e-03   1.000e-03   1.000e+00    -0.016

-----------------------------------------
Beginning of batch-reaction calculations.
-----------------------------------------

Reaction step 1.

Using solution 1.	
Using exchange 1.	Exchange assemblage after simulation 2.

-----------------------------Exchange composition------------------------------

X                1.000e-03 mol

	                               Equiv-    Equivalent      Log 
	Species             Moles      alents      Fraction     Gamma

	KX                1.000e-03   1.000e-03   1.000e+00    -0.016

-----------------------------Solution composition------------------------------

	Elements           Molality       Moles

	K                 1.000e-03   1.000e-03
	N                 1.000e-03   1.000e-03

----------------------------Description of solution----------------------------

                                       pH  =   7.000      Charge balance
                                       pe  =  13.622      Adjusted to redox equilibrium
       Specific Conductance (uS/cm, 25 oC) = 141
                          Density (g/cm3)  =   0.99711
                        Activity of water  =   1.000
                           Ionic strength  =   1.000e-03
                       Mass of water (kg)  =   1.000e+00
                 Total alkalinity (eq/kg)  =   4.521e-10
                    Total carbon (mol/kg)  =   0.000e+00
                       Total CO2 (mol/kg)  =   0.000e+00
                      Temperature (deg C)  =  25.00
                  Electrical balance (eq)  =  -4.521e-10
 Percent error, 100*(Cat-|An|)/(Cat+|An|)  =  -0.00
                               Iterations  =   5
                                  Total H  = 1.110124e+02
                                  Total O  = 5.550973e+01

----------------------------Distribution of species----------------------------

                                               Log       Log       Log    mole V
   Species          Molality    Activity  Molality  Activity     Gamma   cm3/mol

   OH-             1.039e-07   1.002e-07    -6.983    -6.999    -0.016     -4.08
   H+              1.035e-07   1.000e-07    -6.985    -7.000    -0.015      0.00
   H2O             5.551e+01   1.000e+00     1.744    -0.000     0.000     18.07
H(0)          0.000e+00
   H2              0.000e+00   0.000e+00   -44.394   -44.394     0.000     28.61
K             1.000e-03
   K+              1.000e-03   9.649e-04    -3.000    -3.016    -0.016      8.93
   KOH             3.345e-11   3.345e-11   -10.476   -10.476     0.000     (0)  
N(0)          1.351e-19
   N2              6.757e-20   6.759e-20   -19.170   -19.170     0.000     29.29
N(3)          2.120e-16
   NO2-            2.120e-16   2.045e-16   -15.674   -15.689    -0.016     24.97
N(5)          1.000e-03
   NO3-            1.000e-03   9.647e-04    -3.000    -3.016    -0.016     29.45
O(0)          5.111e-04
   O2              2.555e-04   2.556e-04    -3.593    -3.592     0.000     30.40

------------------------------Saturation indices-------------------------------

	Phase               SI   log IAP   log K(298 K,   1 atm)

	H2(g)           -41.29    -44.39   -3.10  H2
	H2O(g)           -1.50     -0.00    1.50  H2O
	N2(g)           -15.99    -19.17   -3.18  N2
	O2(g)            -0.70     -3.59   -2.89  O2	 Pressure   0.2 atm, phi 1.000.


------------------
End of simulation.
------------------

------------------------------------
Reading input data for simulation 3.
------------------------------------

	PRINT
		reset false
	TRANSPORT
		cells  20
		shifts  5  1
		timest 3600 
		tempr  3.0
		bcond   3  3
		diffc  0.0e-9
		length 0.10
		disp   0.015
	 	stagnant	1  6.8e-6  0.3  0.1
	END
WARNING: Cell-lengths were read for 1 cells. Last value is used till cell 20.
WARNING: Dispersivities were read for 1 cells. Last value is used till cell 20.
	SOLUTION 0  # Original solution reenters
		units	mmol/l
		pH	 7.0
		pe	13.0   O2(g)	-0.7
		K 	 1.0
		N(5)	 1.0
	END
	SELECTED_OUTPUT
		file  colt3.prn
		simulation false
	 state false
	 soln false
	 time false
	 step false
		ph false
	  pe    false
		totals Cl Na
	TRANSPORT
		shifts  10  1
		selected_output	 10
		punch	1 2 3 4 5 6 7 8 9 10 11 12 13 14 15 16 17 18 19 20
	END
------------------------------
End of Run after 0.33 Seconds.
------------------------------

