WARNING: Database file from DATABASE keyword is used; command line argument ignored.
   Input file: count_database_species
  Output file: count_database_species.out
Database file: ../database/sit.dat

------------------
Reading data base.
------------------

	SOLUTION_MASTER_SPECIES
	SIT
	SOLUTION_SPECIES
	PHASES
------------------------------------
Reading input data for simulation 1.
------------------------------------

	DATABASE ../database/sit.dat
	SELECTED_OUTPUT 101
	    file                 count_database_species_101.sel
	USER_PUNCH 101
	    headings Mu SC
	    start
	10 PUNCH STR_F$(MU, 20, 12)
	20 PUNCH STR_F$(SC, 20, 10)
	    end
	PRINT
	 user_print TRUE
	SOLUTION
	He 1
	Li 1
	Be 1
	B 1
	C 1
	N 1
	F 1
	Ne 1
	Na 1
	Mg 1
	Al 1
	Si 1
	P 1
	S 1
	Cl 1
	Ar 1
	K 1
	Ca 1
	Sc 1
	Ti 1
	V 1
	Cr 1
	Mn 1
	Fe 1
	Co 1
	Ni 1
	Cu 1
	Zn 1
	Ga 1
	Ge 1
	As 1
	Se 1
	Br 1
	Kr 1
	Rb 1
	Sr 1
	Y 1
	Zr 1
	Nb 1
	Mo 1
	Tc 1
	Ru 1
	Rh 1
	Pd 1
	Ag 1
	Cd 1
	In 1
	Sn 1
	Sb 1
	Te 1
	I 1
	Xe 1
	Cs 1
	Ba 1
	Hf 1
	Ta 1
	W 1
	Re 1
	Os 1
	Ir 1
	Pt 1
	Au 1
	Hg 1
	Tl 1
	Pb 1
	Bi 1
	Po 1
	At 1
	Rn 1
	Fr 1
	Ra 1
	La 1
	Ce 1
	Pr 1
	Nd 1
	Pm 1
	Sm 1
	Eu 1
	Gd 1
	Tb 1
	Dy 1
	Ho 1
	Er 1
	Tm 1
	Yb 1
	Lu 1
	Ac 1
	Th 1
	Pa 1
	U 1
	Np 1
	Pu 1
	Am 1
	Cm 1
	Bk 1
	Cf 1
	Es 1
	Fm 1
	Md 1
	No 1
	Lr 1
	USER_PRINT
	start
	10 PRINT"Summary of inorganic species (elements)"
	20 totel = SYS("elements", ne, ne$, te$, ve)
	30 npm = ne
	40 FOR i = 1 TO ne
	50 tots = SYS(ne$(i), ns, ns$, ts$, vs)
	60 IF(INSTR(ne$(i), "(") <> 0) THEN 70
	70 IF(INSTR(ne$(i), "(") = 0) THEN 90
	80 npm = npm-1
	90 NEXT i
	100 PRINT"number of primary master species", CHR$(09), "=", CHR$(09), npm
	110 PRINT"number of secondary master species", CHR$(09), "=", CHR$(09), ne-npm
	120 totph = SYS("phases", np, np$, tp$, vp)
	130 ngas = 0
	140 FOR ii = 1 TO np
	150 element$ = np$(ii)
	160 totphs = SYS(element$, nph, nph$, tph$, vph)
	170 g = INSTR(element$, "(g)")+INSTR(element$, "(G)")
	180 IF(g = 0) THEN 200
	190 ngas = ngas+1
	200 NEXT ii
	210 PRINT"number of minerals", CHR$(09), "=", CHR$(09), np-ngas
	220 PRINT"number of gases", CHR$(09), "=", CHR$(09), ngas
	230 totaq = SYS("aq", naq, naq$, taq$, vaq)
	240 PRINT"number of aqueous species", CHR$(09), "=", CHR$(09), naq
	end
	SELECTED_OUTPUT
	reset FALSE
	USER_PUNCH
	headings primary_master_species secondary_master_species minerals gases aqueous_species
	start
	10 totel = SYS("elements", ne, ne$, te$, ve)
	20 npm = ne
	30 FOR i = 1 TO ne
	40 tots = SYS(ne$(i), ns, ns$, ts$, vs)
	50 IF(INSTR(ne$(i), "(") <> 0) THEN 60
	60 IF(INSTR(ne$(i), "(") = 0) THEN 80
	70 npm = npm-1
	80 NEXT i
	90 PUNCH npm
	100 PUNCH ne-npm
	110 totph = SYS("phases", np, np$, tp$, vp)
	120 ngas = 0
	130 FOR ii = 1 TO np
	140 element$ = np$(ii)
	150 totphs = SYS(element$, nph, nph$, tph$, vph)
	160 g = INSTR(element$, "(g)")+INSTR(element$, "(G)")
	170 IF(g = 0) THEN 190
	180 ngas = ngas+1
	190 NEXT ii
	200 PUNCH np-ngas
	210 PUNCH ngas
	220 totaq = SYS("aq", naq, naq$, taq$, vaq)
	230 PUNCH naq
	end
	END
WARNING: Could not find element in database, Ac.
	Concentration is set to zero.
WARNING: Could not find element in database, Ar.
	Concentration is set to zero.
WARNING: Could not find element in database, At.
	Concentration is set to zero.
WARNING: Could not find element in database, Au.
	Concentration is set to zero.
WARNING: Could not find element in database, Be.
	Concentration is set to zero.
WARNING: Could not find element in database, Bi.
	Concentration is set to zero.
WARNING: Could not find element in database, Bk.
	Concentration is set to zero.
WARNING: Could not find element in database, Ce.
	Concentration is set to zero.
WARNING: Could not find element in database, Cf.
	Concentration is set to zero.
WARNING: Could not find element in database, Dy.
	Concentration is set to zero.
WARNING: Could not find element in database, Er.
	Concentration is set to zero.
WARNING: Could not find element in database, Es.
	Concentration is set to zero.
WARNING: Could not find element in database, Fm.
	Concentration is set to zero.
WARNING: Could not find element in database, Fr.
	Concentration is set to zero.
WARNING: Could not find element in database, Ga.
	Concentration is set to zero.
WARNING: Could not find element in database, Gd.
	Concentration is set to zero.
WARNING: Could not find element in database, Ge.
	Concentration is set to zero.
WARNING: Could not find element in database, He.
	Concentration is set to zero.
WARNING: Could not find element in database, In.
	Concentration is set to zero.
WARNING: Could not find element in database, Ir.
	Concentration is set to zero.
WARNING: Could not find element in database, Kr.
	Concentration is set to zero.
WARNING: Could not find element in database, La.
	Concentration is set to zero.
WARNING: Could not find element in database, Lr.
	Concentration is set to zero.
WARNING: Could not find element in database, Lu.
	Concentration is set to zero.
WARNING: Could not find element in database, Md.
	Concentration is set to zero.
WARNING: Could not find element in database, Nd.
	Concentration is set to zero.
WARNING: Could not find element in database, Ne.
	Concentration is set to zero.
WARNING: Could not find element in database, No.
	Concentration is set to zero.
WARNING: Could not find element in database, Os.
	Concentration is set to zero.
WARNING: Could not find element in database, Pm.
	Concentration is set to zero.
WARNING: Could not find element in database, Po.
	Concentration is set to zero.
WARNING: Could not find element in database, Pr.
	Concentration is set to zero.
WARNING: Could not find element in database, Pt.
	Concentration is set to zero.
WARNING: Could not find element in database, Re.
	Concentration is set to zero.
WARNING: Could not find element in database, Rh.
	Concentration is set to zero.
WARNING: Could not find element in database, Rn.
	Concentration is set to zero.
WARNING: Could not find element in database, Ru.
	Concentration is set to zero.
WARNING: Could not find element in database, Sc.
	Concentration is set to zero.
WARNING: Could not find element in database, Ta.
	Concentration is set to zero.
WARNING: Could not find element in database, Tb.
	Concentration is set to zero.
WARNING: Could not find element in database, Te.
	Concentration is set to zero.
WARNING: Could not find element in database, Ti.
	Concentration is set to zero.
WARNING: Could not find element in database, Tl.
	Concentration is set to zero.
WARNING: Could not find element in database, Tm.
	Concentration is set to zero.
WARNING: Could not find element in database, V.
	Concentration is set to zero.
WARNING: Could not find element in database, W.
	Concentration is set to zero.
WARNING: Could not find element in database, Xe.
	Concentration is set to zero.
WARNING: Could not find element in database, Y.
	Concentration is set to zero.
WARNING: Could not find element in database, Yb.
	Concentration is set to zero.
-------------------------------------------
Beginning of initial solution calculations.
-------------------------------------------

Initial solution 1.	

----------------------------------User print-----------------------------------

Summary of inorganic species (elements) 
number of primary master species 	 = 	           54 
number of secondary master species 	 = 	           57 
number of minerals 	 = 	          837 
number of gases 	 = 	           10 
number of aqueous species 	 = 	         1012 

-----------------------------Solution composition------------------------------

	Elements           Molality       Moles

	Ag                1.000e-03   1.000e-03
	Al                1.000e-03   1.000e-03
	Am                1.000e-03   1.000e-03
	As                1.000e-03   1.000e-03
	B                 1.000e-03   1.000e-03
	Ba                1.000e-03   1.000e-03
	Br                1.000e-03   1.000e-03
	C                 1.000e-03   1.000e-03
	Ca                1.000e-03   1.000e-03
	Cd                1.000e-03   1.000e-03
	Cl                1.000e-03   1.000e-03
	Cm                1.000e-03   1.000e-03
	Co                1.000e-03   1.000e-03
	Cr                1.000e-03   1.000e-03
	Cs                1.000e-03   1.000e-03
	Cu                1.000e-03   1.000e-03
	Eu                1.000e-03   1.000e-03
	F                 1.000e-03   1.000e-03
	Fe                1.000e-03   1.000e-03
	Hf                1.000e-03   1.000e-03
	Hg                1.000e-03   1.000e-03
	Ho                1.000e-03   1.000e-03
	I                 1.000e-03   1.000e-03
	K                 1.000e-03   1.000e-03
	Li                1.000e-03   1.000e-03
	Mg                1.000e-03   1.000e-03
	Mn                1.000e-03   1.000e-03
	Mo                1.000e-03   1.000e-03
	N                 1.000e-03   1.000e-03
	Na                1.000e-03   1.000e-03
	Nb                1.000e-03   1.000e-03
	Ni                1.000e-03   1.000e-03
	Np                1.000e-03   1.000e-03
	P                 1.000e-03   1.000e-03
	Pa                1.000e-03   1.000e-03
	Pb                1.000e-03   1.000e-03
	Pd                1.000e-03   1.000e-03
	Pu                1.000e-03   1.000e-03
	Ra                1.000e-03   1.000e-03
	Rb                1.000e-03   1.000e-03
	S                 1.000e-03   1.000e-03
	Sb                1.000e-03   1.000e-03
	Se                1.000e-03   1.000e-03
	Si                1.000e-03   1.000e-03
	Sm                1.000e-03   1.000e-03
	Sn                1.000e-03   1.000e-03
	Sr                1.000e-03   1.000e-03
	Tc                1.000e-03   1.000e-03
	Th                1.000e-03   1.000e-03
	U                 1.000e-03   1.000e-03
	Zn                1.000e-03   1.000e-03
	Zr                1.000e-03   1.000e-03

----------------------------Description of solution----------------------------

                                       pH  =   7.000    
                                       pe  =   4.000    
                        Activity of water  =   0.999
                 Ionic strength (mol/kgw)  =   4.748e-02
                       Mass of water (kg)  =   1.000e+00
                 Total alkalinity (eq/kg)  =   2.208e-02
                       Total CO2 (mol/kg)  =   1.000e-03
                         Temperature (°C)  =  25.00
                  Electrical balance (eq)  =   3.056e-02
 Percent error, 100*(Cat-|An|)/(Cat+|An|)  =  60.31
                               Iterations  =  38
                         Gamma iterations  =  12
                      Osmotic coefficient  =   0.87200
                                  Total H  = 1.110731e+02
                                  Total O  = 5.558859e+01

----------------------------Distribution of species----------------------------

                                               Log       Log       Log    mole V
   Species          Molality    Activity  Molality  Activity     Gamma   cm³/mol

   H+              1.212e-07   1.000e-07    -6.916    -7.000    -0.084      0.00
   OH-             1.212e-07   9.993e-08    -6.917    -7.000    -0.084     (0)  
   H2O             5.551e+01   9.994e-01     1.744    -0.000     0.000     18.07
Ag            1.000e-03
   AgI             3.744e-04   3.744e-04    -3.427    -3.427     0.000     (0)  
   AgI2-           3.092e-04   2.550e-04    -3.510    -3.593    -0.084     (0)  
   AgBr            1.594e-04   1.594e-04    -3.798    -3.798     0.000     (0)  
   AgBr2-          1.020e-04   8.407e-05    -3.992    -4.075    -0.084     (0)  
   AgCl            2.693e-05   2.693e-05    -4.570    -4.570     0.000     (0)  
   Ag+             2.311e-05   1.906e-05    -4.636    -4.720    -0.084     (0)  
   AgCl2-          2.479e-06   2.044e-06    -5.606    -5.690    -0.084     (0)  
   AgBr3-2         2.355e-06   1.089e-06    -5.628    -5.963    -0.335     (0)  
   Ag(SO4)-        1.154e-07   9.514e-08    -6.938    -7.022    -0.084     (0)  
   AgI3-2          1.083e-07   5.009e-08    -6.965    -7.300    -0.335     (0)  
   AgCl3-2         3.513e-09   1.624e-09    -8.454    -8.789    -0.335     (0)  
   Ag(OH)          1.905e-10   1.905e-10    -9.720    -9.720     0.000     (0)  
   AgCO3-          6.586e-11   5.431e-11   -10.181   -10.265    -0.084     (0)  
   AgCl4-3         1.161e-11   2.046e-12   -10.935   -11.689    -0.754     (0)  
   Ag(SeO3)-       7.103e-14   5.857e-14   -13.149   -13.232    -0.084     (0)  
   Ag(OH)2-        2.308e-15   1.903e-15   -14.637   -14.720    -0.084     (0)  
   Ag(CO3)2-3      5.290e-19   9.325e-20   -18.277   -19.030    -0.754     (0)  
   AgNO3           1.224e-26   1.224e-26   -25.912   -25.912     0.000     (0)  
   Ag(SO3)-        1.872e-29   1.543e-29   -28.728   -28.812    -0.084     (0)  
   Ag(HS)          0.000e+00   0.000e+00   -55.661   -55.661     0.000     (0)  
   Ag(S2O3)-       0.000e+00   0.000e+00   -66.208   -66.292    -0.084     (0)  
   Ag(HS)2-        0.000e+00   0.000e+00  -116.168  -116.252    -0.084     (0)  
   Ag(S2O3)2-3     0.000e+00   0.000e+00  -131.931  -132.684    -0.754     (0)  
Al            1.000e-03
   Al(OH)4-        4.851e-04   4.000e-04    -3.314    -3.398    -0.084     (0)  
   Al(OH)2F        3.829e-04   3.829e-04    -3.417    -3.417     0.000     (0)  
   Al(OH)3         1.128e-04   1.128e-04    -3.948    -3.948     0.000     (0)  
   Al(OH)2+        9.469e-06   7.810e-06    -5.024    -5.107    -0.084     (0)  
   AlF2+           4.988e-06   4.113e-06    -5.302    -5.386    -0.084     (0)  
   Al(OH)2F2-      1.612e-06   1.329e-06    -5.793    -5.876    -0.084     (0)  
   AlF+2           1.284e-06   5.939e-07    -5.891    -6.226    -0.335     (0)  
   AlF3            9.653e-07   9.653e-07    -6.015    -6.015     0.000     (0)  
   Al(OH)+2        7.209e-07   3.334e-07    -6.142    -6.477    -0.335     (0)  
   NaAl(OH)4       5.733e-08   5.733e-08    -7.242    -7.242     0.000     (0)  
   Al+3            1.685e-08   2.973e-09    -7.773    -8.527    -0.754     (0)  
   KAl(OH)4        1.474e-08   1.474e-08    -7.832    -7.832     0.000     (0)  
   AlH3SiO4+2      9.599e-09   4.438e-09    -8.018    -8.353    -0.335     (0)  
   AlF4-           5.874e-09   4.844e-09    -8.231    -8.315    -0.084     (0)  
   Al(SO4)+        1.110e-09   9.152e-10    -8.955    -9.038    -0.084     (0)  
   AlOHF2          2.108e-11   2.108e-11   -10.676   -10.676     0.000     (0)  
   Al(IO3)+2       0.000e+00   0.000e+00   -56.579   -56.914    -0.335     (0)  
   Al(IO3)2+       0.000e+00   0.000e+00  -105.838  -105.922    -0.084     (0)  
Am(2)         0.000e+00
   Am+2            0.000e+00   0.000e+00   -46.675   -47.010    -0.335     (0)  
Am(3)         1.000e-03
   Am+3            4.202e-04   7.411e-05    -3.376    -4.130    -0.754     (0)  
   AmOSi(OH)3+2    2.811e-04   1.300e-04    -3.551    -3.886    -0.335     (0)  
   Am(OH)+2        1.011e-04   4.673e-05    -3.995    -4.330    -0.335     (0)  
   AmPO4           7.513e-05   7.513e-05    -4.124    -4.124     0.000     (0)  
   Am(SO4)+        5.270e-05   4.347e-05    -4.278    -4.362    -0.084     (0)  
   Am(CO3)+        4.153e-05   3.425e-05    -4.382    -4.465    -0.084     (0)  
   Am(HPO4)+       9.541e-06   7.867e-06    -5.020    -5.104    -0.084     (0)  
   AmF+2           8.419e-06   3.894e-06    -5.075    -5.410    -0.335     (0)  
   Am(OH)2+        7.134e-06   5.879e-06    -5.147    -5.231    -0.084     (0)  
   Am(HCO3)+2      2.510e-06   1.161e-06    -5.600    -5.935    -0.335     (0)  
   AmCl+2          2.113e-07   9.774e-08    -6.675    -7.010    -0.335     (0)  
   Am(SO4)2-       1.446e-07   1.193e-07    -6.840    -6.924    -0.084     (0)  
   Am(H2PO4)+2     9.347e-08   4.323e-08    -7.029    -7.364    -0.335     (0)  
   Am(PO4)2-3      5.316e-08   9.370e-09    -7.274    -8.028    -0.754     (0)  
   AmF3            4.481e-08   4.481e-08    -7.349    -7.349     0.000     (0)  
   AmF2+           2.480e-08   2.046e-08    -7.605    -7.689    -0.084     (0)  
   Am(HPO4)2-      1.498e-08   1.235e-08    -7.824    -7.908    -0.084     (0)  
   Am(CO3)2-       1.212e-08   9.988e-09    -7.917    -8.001    -0.084     (0)  
   Am(OH)3         4.669e-10   4.669e-10    -9.331    -9.331     0.000     (0)  
   AmCl2+          9.418e-12   7.768e-12   -11.026   -11.110    -0.084     (0)  
   Ca(Am(OH)3)+2   3.527e-13   1.631e-13   -12.453   -12.788    -0.335     (0)  
   Am(CO3)3-3      3.298e-14   5.811e-15   -13.482   -14.236    -0.754     (0)  
   Am(OH)4-        1.789e-17   1.475e-17   -16.747   -16.831    -0.084     (0)  
   Ca2(Am(OH)4)+3   5.118e-20   9.022e-21   -19.291   -20.045    -0.754     (0)  
   Am(NO3)+2       4.289e-24   1.984e-24   -23.368   -23.703    -0.335     (0)  
   Ca3(Am(OH)6)+3   7.109e-33   1.253e-33   -32.148   -32.902    -0.754     (0)  
   Am(CO3)5-6      0.000e+00   0.000e+00   -43.391   -46.406    -3.016     (0)  
Am(4)         0.000e+00
   Am+4            0.000e+00   0.000e+00   -43.000   -44.340    -1.340     (0)  
Am(5)         3.832e-27
   AmO2+           3.829e-27   3.158e-27   -26.417   -26.501    -0.084     (0)  
   AmO2(CO3)-      2.806e-30   2.313e-30   -29.552   -29.636    -0.084     (0)  
   AmO2OH          1.582e-31   1.582e-31   -30.801   -30.801     0.000     (0)  
   AmO2(CO3)2-3    3.042e-36   5.358e-37   -35.517   -36.271    -0.754     (0)  
   AmO2(OH)2-      9.607e-37   7.922e-37   -36.017   -36.101    -0.084     (0)  
   AmO2(CO3)3-5    0.000e+00   0.000e+00   -44.012   -46.106    -2.094     (0)  
Am(6)         0.000e+00
   AmO2+2          0.000e+00   0.000e+00   -49.146   -49.481    -0.335     (0)  
As(3)         7.721e-12
   H3(AsO3)        7.665e-12   7.665e-12   -11.115   -11.115     0.000     (0)  
   H2(AsO3)-       5.601e-14   4.619e-14   -13.252   -13.335    -0.084     (0)  
   H(AsO3)-2       3.977e-21   1.839e-21   -20.400   -20.735    -0.335     (0)  
   AsO3-3          1.118e-28   1.970e-29   -27.952   -28.705    -0.754     (0)  
As(5)         1.000e-03
   H(AsO4)-2       6.156e-04   2.846e-04    -3.211    -3.546    -0.335     (0)  
   H2(AsO4)-       2.032e-04   1.676e-04    -3.692    -3.776    -0.084     (0)  
   NiHAsO4         9.257e-05   9.257e-05    -4.034    -4.034     0.000     (0)  
   UO2(HAsO4)      5.854e-05   5.854e-05    -4.233    -4.233     0.000     (0)  
   Ca(HAsO4)       2.497e-05   2.497e-05    -4.602    -4.602     0.000     (0)  
   Ca(H2AsO4)+     2.827e-06   2.331e-06    -5.549    -5.632    -0.084     (0)  
   Ca(AsO4)-       2.245e-06   1.851e-06    -5.649    -5.732    -0.084     (0)  
   AsO4-3          4.056e-08   7.149e-09    -7.392    -8.146    -0.754     (0)  
   UO2(H2AsO4)+    1.125e-08   9.277e-09    -7.949    -8.033    -0.084     (0)  
   H3(AsO4)        3.049e-09   3.049e-09    -8.516    -8.516     0.000     (0)  
   UO2(H2AsO4)2    2.464e-11   2.464e-11   -10.608   -10.608     0.000     (0)  
B             1.000e-03
   Cu(B(OH)4)+     7.412e-04   6.112e-04    -3.130    -3.214    -0.084     (0)  
   B(OH)3          9.090e-05   9.090e-05    -4.041    -4.041     0.000     (0)  
   Cu(B(OH)4)2     6.675e-05   6.675e-05    -4.176    -4.176     0.000     (0)  
   Pb(B(OH)4)+     3.365e-05   2.775e-05    -4.473    -4.557    -0.084     (0)  
   B(OH)4-         6.340e-07   5.227e-07    -6.198    -6.282    -0.084     (0)  
   Cu(B(OH)4)3-    2.221e-08   1.831e-08    -7.654    -7.737    -0.084     (0)  
   CaB(OH)4+       1.759e-08   1.451e-08    -7.755    -7.838    -0.084     (0)  
   MgB(OH)4+       1.146e-08   9.451e-09    -7.941    -8.025    -0.084     (0)  
   SrB(OH)4+       1.019e-08   8.406e-09    -7.992    -8.075    -0.084     (0)  
   BaB(OH)4+       8.641e-09   7.125e-09    -8.063    -8.147    -0.084     (0)  
   BF(OH)3-        1.156e-09   9.529e-10    -8.937    -9.021    -0.084     (0)  
   NaB(OH)4        3.424e-10   3.424e-10    -9.465    -9.465     0.000     (0)  
   Fe(B(OH)4)2+    1.871e-10   1.543e-10    -9.728    -9.812    -0.084     (0)  
   Fe(B(OH)4)+2    7.000e-11   3.237e-11   -10.155   -10.490    -0.335     (0)  
   HB2O4-          4.914e-11   4.052e-11   -10.309   -10.392    -0.084     (0)  
   Pb(B(OH)4)3-    8.780e-12   7.240e-12   -11.056   -11.140    -0.084     (0)  
   B3O5-           1.382e-12   1.140e-12   -11.859   -11.943    -0.084     (0)  
   BF2(OH)2-       2.592e-13   2.137e-13   -12.586   -12.670    -0.084     (0)  
   B4O7-2          1.290e-17   5.965e-18   -16.889   -17.224    -0.335     (0)  
   BF3(OH)-        5.948e-19   4.905e-19   -18.226   -18.309    -0.084     (0)  
   BF4-            5.072e-24   4.182e-24   -23.295   -23.379    -0.084     (0)  
Ba            1.000e-03
   Ba+2            9.539e-04   4.411e-04    -3.021    -3.355    -0.335     (0)  
   Ba(SO4)         4.601e-05   4.601e-05    -4.337    -4.337     0.000     (0)  
   Ba(HCO3)+       6.354e-08   5.239e-08    -7.197    -7.281    -0.084     (0)  
   BaF+            2.811e-08   2.318e-08    -7.551    -7.635    -0.084     (0)  
   BaB(OH)4+       8.641e-09   7.125e-09    -8.063    -8.147    -0.084     (0)  
   Ba(CO3)         1.316e-09   1.316e-09    -8.881    -8.881     0.000     (0)  
   Ba(OH)+         1.811e-10   1.494e-10    -9.742    -9.826    -0.084     (0)  
   Ba(NO3)+        3.280e-25   2.705e-25   -24.484   -24.568    -0.084     (0)  
Br            1.000e-03
   Br-             5.834e-04   4.812e-04    -3.234    -3.318    -0.084     (0)  
   AgBr            1.594e-04   1.594e-04    -3.798    -3.798     0.000     (0)  
   AgBr2-          1.020e-04   8.407e-05    -3.992    -4.075    -0.084     (0)  
   CdBr+           3.500e-05   2.886e-05    -4.456    -4.540    -0.084     (0)  
   PbBr+           9.794e-06   8.076e-06    -5.009    -5.093    -0.084     (0)  
   AgBr3-2         2.355e-06   1.089e-06    -5.628    -5.963    -0.335     (0)  
   CsBr            4.876e-07   4.876e-07    -6.312    -6.312     0.000     (0)  
   MnBr+           2.906e-07   2.396e-07    -6.537    -6.621    -0.084     (0)  
   MgBr+           1.920e-07   1.583e-07    -6.717    -6.801    -0.084     (0)  
   SmBr+2          1.470e-07   6.795e-08    -6.833    -7.168    -0.335     (0)  
   EuBr+2          1.422e-07   6.573e-08    -6.847    -7.182    -0.335     (0)  
   CdBr2           7.991e-08   7.991e-08    -7.097    -7.097     0.000     (0)  
   RbBr            2.283e-08   2.283e-08    -7.642    -7.642     0.000     (0)  
   PbBr2           6.159e-09   6.159e-09    -8.211    -8.211     0.000     (0)  
   PdBr3-          3.796e-10   3.131e-10    -9.421    -9.504    -0.084     (0)  
   PdBr2           1.328e-10   1.328e-10    -9.877    -9.877     0.000     (0)  
   CdBr3-          8.683e-11   7.160e-11   -10.061   -10.145    -0.084     (0)  
   PbBr3-          3.594e-11   2.963e-11   -10.444   -10.528    -0.084     (0)  
   EuBr2+          1.753e-11   1.446e-11   -10.756   -10.840    -0.084     (0)  
   PdBr+           1.717e-11   1.416e-11   -10.765   -10.849    -0.084     (0)  
   UO2Br+          1.377e-11   1.136e-11   -10.861   -10.945    -0.084     (0)  
   PdBr4-2         7.461e-12   3.450e-12   -11.127   -11.462    -0.335     (0)  
   CrBr+2          5.276e-14   2.439e-14   -13.278   -13.613    -0.335     (0)  
   FeBr+2          8.494e-16   3.927e-16   -15.071   -15.406    -0.335     (0)  
   FeBr2+          3.632e-19   2.995e-19   -18.440   -18.524    -0.084     (0)  
   HfBr+3          1.030e-22   1.816e-23   -21.987   -22.741    -0.754     (0)  
   PuBr+3          2.889e-24   5.093e-25   -23.539   -24.293    -0.754     (0)  
   NpBr+3          1.286e-26   2.266e-27   -25.891   -26.645    -0.754     (0)  
   SnBr+           3.343e-36   2.756e-36   -35.476   -35.560    -0.084     (0)  
   UBr+3           1.229e-36   2.167e-37   -35.910   -36.664    -0.754     (0)  
   SnBr2           5.789e-39   5.789e-39   -38.237   -38.237     0.000     (0)  
   SnBr3-          0.000e+00   0.000e+00   -41.511   -41.595    -0.084     (0)  
   UO2BrO3+        0.000e+00   0.000e+00   -90.621   -90.705    -0.084     (0)  
C(-4)         0.000e+00
   CH4             0.000e+00   0.000e+00   -72.045   -72.045     0.000     (0)  
C(4)          1.000e-03
   FeCO3OH         5.449e-04   5.449e-04    -3.264    -3.264     0.000     (0)  
   (UO2)2(CO3)(OH)3-   1.968e-04   1.623e-04    -3.706    -3.790    -0.084     (0)  
   Eu(CO3)+        4.304e-05   3.550e-05    -4.366    -4.450    -0.084     (0)  
   Ho(CO3)+        4.186e-05   3.453e-05    -4.378    -4.462    -0.084     (0)  
   Am(CO3)+        4.153e-05   3.425e-05    -4.382    -4.465    -0.084     (0)  
   CmCO3+          4.067e-05   3.356e-05    -4.391    -4.474    -0.083     (0)  
   Sm(CO3)+        3.701e-05   3.053e-05    -4.432    -4.515    -0.084     (0)  
   Pb(CO3)         1.949e-05   1.949e-05    -4.710    -4.710     0.000     (0)  
   HCO3-           1.508e-05   1.244e-05    -4.821    -4.905    -0.084     (0)  
   Mn(CO3)         6.792e-06   6.792e-06    -5.168    -5.168     0.000     (0)  
   CO2             2.786e-06   2.786e-06    -5.555    -5.555     0.000     (0)  
   Am(HCO3)+2      2.510e-06   1.161e-06    -5.600    -5.935    -0.335     (0)  
   CmHCO3+2        2.460e-06   1.137e-06    -5.609    -5.944    -0.335     (0)  
   UO2(CO3)        7.211e-07   7.211e-07    -6.142    -6.142     0.000     (0)  
   CoHCO3+         5.282e-07   4.356e-07    -6.277    -6.361    -0.084     (0)  
   NpO2(CO3)-      5.263e-07   4.338e-07    -6.279    -6.363    -0.084     (0)  
   Fe(CO3)         4.749e-07   4.749e-07    -6.323    -6.323     0.000     (0)  
   Th(OH)3(CO3)-   3.644e-07   3.005e-07    -6.438    -6.522    -0.084     (0)  
   Sm(HCO3)+2      2.817e-07   1.302e-07    -6.550    -6.885    -0.335     (0)  
   Eu(HCO3)+2      2.602e-07   1.203e-07    -6.585    -6.920    -0.335     (0)  
   Ho(HCO3)+2      2.361e-07   1.092e-07    -6.627    -6.962    -0.335     (0)  
   Cd(HCO3)+       1.979e-07   1.632e-07    -6.704    -6.787    -0.084     (0)  
   Ni(HCO3)+       1.551e-07   1.279e-07    -6.809    -6.893    -0.084     (0)  
   Cr(OH)CO3       1.229e-07   1.229e-07    -6.910    -6.910     0.000     (0)  
   Cd(CO3)         1.210e-07   1.210e-07    -6.917    -6.917     0.000     (0)  
   Mn(HCO3)+       1.061e-07   8.750e-08    -6.974    -7.058    -0.084     (0)  
   Sr(HCO3)+       1.035e-07   8.533e-08    -6.985    -7.069    -0.084     (0)  
   Ca(HCO3)+       8.353e-08   6.887e-08    -7.078    -7.162    -0.084     (0)  
   Mg(HCO3)+       7.512e-08   6.194e-08    -7.124    -7.208    -0.084     (0)  
   FeHCO3+         6.923e-08   5.709e-08    -7.160    -7.243    -0.084     (0)  
   Ba(HCO3)+       6.354e-08   5.239e-08    -7.197    -7.281    -0.084     (0)  
   Ho(CO3)2-       4.862e-08   4.008e-08    -7.313    -7.397    -0.084     (0)  
   Th(OH)2(CO3)    4.765e-08   4.765e-08    -7.322    -7.322     0.000     (0)  
   CoCO3           4.457e-08   4.457e-08    -7.351    -7.351     0.000     (0)  
   UO2(CO3)2-2     4.245e-08   1.962e-08    -7.372    -7.707    -0.335     (0)  
   Ni(CO3)         3.776e-08   3.776e-08    -7.423    -7.423     0.000     (0)  
   Ra(HCO3)+       2.570e-08   2.119e-08    -7.590    -7.674    -0.084     (0)  
   Eu(CO3)2-       2.506e-08   2.066e-08    -7.601    -7.685    -0.084     (0)  
   Sm(CO3)2-       2.155e-08   1.776e-08    -7.667    -7.751    -0.084     (0)  
   CO3-2           1.259e-08   5.818e-09    -7.900    -8.235    -0.335     (0)  
   Am(CO3)2-       1.212e-08   9.988e-09    -7.917    -8.001    -0.084     (0)  
   Cm(CO3)2-       1.186e-08   9.788e-09    -7.926    -8.009    -0.083     (0)  
   Pu(CO3)2(OH)2-2   1.119e-08   5.173e-09    -7.951    -8.286    -0.335     (0)  
   Np(CO3)(OH)3-   6.178e-09   5.093e-09    -8.209    -8.293    -0.084     (0)  
   Na(HCO3)        5.768e-09   5.768e-09    -8.239    -8.239     0.000     (0)  
   CaCO3           4.247e-09   4.247e-09    -8.372    -8.372     0.000     (0)  
   CaUO2(CO3)3-2   4.035e-09   1.865e-09    -8.394    -8.729    -0.335     (0)  
   Hf(CO3)4-4      3.135e-09   1.432e-10    -8.504    -9.844    -1.340     (0)  
   Ca2UO2(CO3)3    2.717e-09   2.717e-09    -8.566    -8.566     0.000     (0)  
   Mg(CO3)         2.523e-09   2.523e-09    -8.598    -8.598     0.000     (0)  
   Sr(CO3)         1.703e-09   1.703e-09    -8.769    -8.769     0.000     (0)  
   Ba(CO3)         1.316e-09   1.316e-09    -8.881    -8.881     0.000     (0)  
   Th(OH)2(CO3)2-2   1.197e-09   5.532e-10    -8.922    -9.257    -0.335     (0)  
   FeCO3OH-        1.097e-09   9.042e-10    -8.960    -9.044    -0.084     (0)  
   Cr(OH)(CO3)2-2   8.305e-10   3.840e-10    -9.081    -9.416    -0.335     (0)  
   Ra(CO3)         8.057e-10   8.057e-10    -9.094    -9.094     0.000     (0)  
   UO2(CO3)3-4     4.243e-10   1.939e-11    -9.372   -10.712    -1.340     (0)  
   Pu(CO3)+        4.010e-10   3.307e-10    -9.397    -9.481    -0.084     (0)  
   Pb(CO3)2-2      3.308e-10   1.529e-10    -9.480    -9.816    -0.335     (0)  
   Na(CO3)-        1.083e-10   8.934e-11    -9.965   -10.049    -0.084     (0)  
   (UO2)3(CO3)(OH)3+   9.273e-11   7.646e-11   -10.033   -10.117    -0.084     (0)  
   AgCO3-          6.586e-11   5.431e-11   -10.181   -10.265    -0.084     (0)  
   PuO2CO3-        8.769e-12   7.228e-12   -11.057   -11.141    -0.084     (0)  
   Th(OH)4(CO3)-2   8.178e-12   3.780e-12   -11.087   -11.422    -0.335     (0)  
   Np(OH)4(CO3)-2   2.465e-12   1.139e-12   -11.608   -11.943    -0.335     (0)  
   Np(OH)2(CO3)2-2   1.436e-12   6.638e-13   -11.843   -12.178    -0.335     (0)  
   NpO2(CO3)2-3    5.324e-13   9.377e-14   -12.274   -13.028    -0.754     (0)  
   Fe(CO3)2-2      3.439e-13   1.590e-13   -12.464   -12.799    -0.335     (0)  
   Fe(CO3)3-3      3.162e-13   5.574e-14   -12.500   -13.254    -0.754     (0)  
   Pu(CO3)2-       1.854e-13   1.529e-13   -12.732   -12.816    -0.084     (0)  
   Cd(CO3)2-2      9.608e-14   4.442e-14   -13.017   -13.352    -0.335     (0)  
   Sm(CO3)3-3      5.866e-14   1.033e-14   -13.232   -13.986    -0.754     (0)  
   Eu(CO3)3-3      5.418e-14   9.546e-15   -13.266   -14.020    -0.754     (0)  
   Ni(CO3)2-2      4.751e-14   2.197e-14   -13.323   -13.658    -0.335     (0)  
   Ho(CO3)3-3      4.185e-14   7.374e-15   -13.378   -14.132    -0.754     (0)  
   Am(CO3)3-3      3.298e-14   5.811e-15   -13.482   -14.236    -0.754     (0)  
   Cm(CO3)3-3      3.230e-14   5.695e-15   -13.491   -14.245    -0.754     (0)  
   Pd(CO3)         1.966e-15   1.966e-15   -14.706   -14.706     0.000     (0)  
   Cr(OH)4(CO3)-3   1.421e-15   2.504e-16   -14.848   -15.601    -0.754     (0)  
   (UO2)11(CO3)6(OH)12-2   1.085e-15   5.015e-16   -14.965   -15.300    -0.335     (0)  
   (UO2)3(CO3)6-6   1.156e-16   1.117e-19   -15.937   -18.952    -3.015     (0)  
   Pu(CO3)3-3      3.657e-17   6.443e-18   -16.437   -17.191    -0.754     (0)  
   NpO2(CO3)2OH-4   2.967e-17   1.355e-18   -16.528   -17.868    -1.341     (0)  
   Tc(OH)2CO3      2.352e-17   2.352e-17   -16.629   -16.629     0.000     (0)  
   Pd(CO3)2-2      1.240e-17   5.732e-18   -16.907   -17.242    -0.335     (0)  
   Pu(CO3)4-4      6.669e-18   3.047e-19   -17.176   -18.516    -1.340     (0)  
   NpO2(CO3)       2.555e-18   2.555e-18   -17.593   -17.593     0.000     (0)  
   Th(OH)(CO3)4-5   1.468e-18   1.182e-20   -17.833   -19.927    -2.094     (0)  
   Tc(OH)3CO3-     1.429e-18   1.178e-18   -17.845   -17.929    -0.084     (0)  
   Ag(CO3)2-3      5.290e-19   9.325e-20   -18.277   -19.030    -0.754     (0)  
   NpO2(CO3)2-2    5.095e-19   2.355e-19   -18.293   -18.628    -0.335     (0)  
   PuO2(CO3)       2.624e-19   2.624e-19   -18.581   -18.581     0.000     (0)  
   Zr(CO3)4-4      2.002e-20   9.149e-22   -19.698   -21.039    -1.340     (0)  
   Np(CO3)4-4      1.594e-20   7.281e-22   -19.798   -21.138    -1.340     (0)  
   NpO2(CO3)3-5    6.329e-21   5.092e-23   -20.199   -22.293    -2.094     (0)  
   NpO2(CO3)(OH)2-2   5.393e-21   2.493e-21   -20.268   -20.603    -0.335     (0)  
   PuO2(CO3)2-2    5.243e-22   2.420e-22   -21.280   -21.616    -0.336     (0)  
   NpO2(CO3)3-4    2.125e-23   9.702e-25   -22.673   -24.013    -1.341     (0)  
   Th(CO3)5-6      1.792e-23   1.729e-26   -22.747   -25.762    -3.016     (0)  
   Pu(CO3)5-6      8.201e-26   7.918e-29   -25.086   -28.101    -3.015     (0)  
   PuO2(CO3)3-4    6.151e-26   2.809e-27   -25.211   -26.551    -1.340     (0)  
   PuO2(CO3)3-5    2.472e-26   1.989e-28   -25.607   -27.701    -2.094     (0)  
   Np(CO3)+        2.195e-26   1.810e-26   -25.659   -25.742    -0.084     (0)  
   UO2(CO3)3-5     9.377e-27   7.543e-29   -26.028   -28.122    -2.095     (0)  
   (UO2)2(NpO2)(CO3)6-6   6.649e-28   6.421e-31   -27.177   -30.192    -3.015     (0)  
   (NpO2)2CO3(OH)3-   4.196e-28   3.460e-28   -27.377   -27.461    -0.084     (0)  
   Np(CO3)5-6      3.734e-28   3.605e-31   -27.428   -30.443    -3.015     (0)  
   PuO2(CO3)6(UO2)2-6   3.504e-29   3.383e-32   -28.455   -31.471    -3.015     (0)  
   Np(CO3)2-       1.087e-29   8.964e-30   -28.964   -29.047    -0.084     (0)  
   AmO2(CO3)-      2.806e-30   2.313e-30   -29.552   -29.636    -0.084     (0)  
   U(CO3)4-4       5.164e-32   2.359e-33   -31.287   -32.627    -1.340     (0)  
   CO              2.318e-33   2.318e-33   -32.635   -32.635     0.000     (0)  
   Np(CO3)3-3      3.399e-34   5.988e-35   -33.469   -34.223    -0.754     (0)  
   AmO2(CO3)2-3    3.042e-36   5.358e-37   -35.517   -36.271    -0.754     (0)  
   U(CO3)5-6       1.079e-39   0.000e+00   -38.967   -41.982    -3.016     (0)  
   Am(CO3)5-6      0.000e+00   0.000e+00   -43.391   -46.406    -3.016     (0)  
   AmO2(CO3)3-5    0.000e+00   0.000e+00   -44.012   -46.106    -2.094     (0)  
   (NpO2)3(CO3)6-6   0.000e+00   0.000e+00   -52.588   -55.604    -3.016     (0)  
   (PuO2)3(CO3)6-6   0.000e+00   0.000e+00   -59.913   -62.929    -3.016     (0)  
Ca            1.000e-03
   Ca+2            9.510e-04   4.398e-04    -3.022    -3.357    -0.335     (0)  
   Ca(HAsO4)       2.497e-05   2.497e-05    -4.602    -4.602     0.000     (0)  
   Ca(SO4)         1.869e-05   1.869e-05    -4.728    -4.728     0.000     (0)  
   Ca(H2AsO4)+     2.827e-06   2.331e-06    -5.549    -5.632    -0.084     (0)  
   Ca(AsO4)-       2.245e-06   1.851e-06    -5.649    -5.732    -0.084     (0)  
   CaF+            9.716e-08   8.012e-08    -7.012    -7.096    -0.084     (0)  
   Ca(HPO4)        8.693e-08   8.693e-08    -7.061    -7.061     0.000     (0)  
   Ca(HCO3)+       8.353e-08   6.887e-08    -7.078    -7.162    -0.084     (0)  
   CaB(OH)4+       1.759e-08   1.451e-08    -7.755    -7.838    -0.084     (0)  
   Ca(H2PO4)+      7.997e-09   6.594e-09    -8.097    -8.181    -0.084     (0)  
   CaCO3           4.247e-09   4.247e-09    -8.372    -8.372     0.000     (0)  
   CaUO2(CO3)3-2   4.035e-09   1.865e-09    -8.394    -8.729    -0.335     (0)  
   CaI+            3.804e-09   3.137e-09    -8.420    -8.504    -0.084     (0)  
   Ca2UO2(CO3)3    2.717e-09   2.717e-09    -8.566    -8.566     0.000     (0)  
   Ca(PO4)-        2.471e-09   2.038e-09    -8.607    -8.691    -0.084     (0)  
   Ca(NH3)+2       9.475e-10   4.381e-10    -9.023    -9.358    -0.335     (0)  
   Ca(OH)+         8.846e-10   7.294e-10    -9.053    -9.137    -0.084     (0)  
   Ca(H3SiO4)+     2.825e-10   2.329e-10    -9.549    -9.633    -0.084     (0)  
   Ca(Sm(OH)3)+2   3.957e-13   1.830e-13   -12.403   -12.738    -0.335     (0)  
   Ca(Eu(OH)3)+2   3.655e-13   1.690e-13   -12.437   -12.772    -0.335     (0)  
   Ca(Am(OH)3)+2   3.527e-13   1.631e-13   -12.453   -12.788    -0.335     (0)  
   Ca(Cm(OH)3)+2   3.456e-13   1.598e-13   -12.461   -12.796    -0.335     (0)  
   Ca(Ho(OH)3)+2   2.824e-13   1.305e-13   -12.549   -12.884    -0.335     (0)  
   CaI2            1.121e-14   1.121e-14   -13.950   -13.950     0.000     (0)  
   Ca(NH3)2+2      2.985e-16   1.380e-16   -15.525   -15.860    -0.335     (0)  
   CaCrO4          1.310e-16   1.310e-16   -15.883   -15.883     0.000     (0)  
   Ca(SeO4)        7.773e-20   7.773e-20   -19.109   -19.109     0.000     (0)  
   Ca2(Sm(OH)4)+3   5.743e-20   1.012e-20   -19.241   -19.995    -0.754     (0)  
   Ca2(Eu(OH)4)+3   5.305e-20   9.351e-21   -19.275   -20.029    -0.754     (0)  
   Ca2(Am(OH)4)+3   5.118e-20   9.022e-21   -19.291   -20.045    -0.754     (0)  
   Ca2(Cm(OH)4)+3   5.016e-20   8.842e-21   -19.300   -20.053    -0.754     (0)  
   Ca2(Ho(OH)4)+3   4.098e-20   7.223e-21   -19.387   -20.141    -0.754     (0)  
   Ca(NH3)3+2      5.932e-23   2.743e-23   -22.227   -22.562    -0.335     (0)  
   Ca(NH3)4+2      5.909e-30   2.732e-30   -29.229   -29.564    -0.335     (0)  
   Ca3(Sm(OH)6)+3   7.977e-33   1.406e-33   -32.098   -32.852    -0.754     (0)  
   Ca3(Eu(OH)6)+3   7.368e-33   1.299e-33   -32.133   -32.886    -0.754     (0)  
   Ca3(Am(OH)6)+3   7.109e-33   1.253e-33   -32.148   -32.902    -0.754     (0)  
   Ca3(Cm(OH)6)+3   6.967e-33   1.228e-33   -32.157   -32.911    -0.754     (0)  
   Ca3(Ho(OH)6)+3   5.692e-33   1.003e-33   -32.245   -32.999    -0.754     (0)  
   Ca4Th(OH)8+4    1.678e-35   7.667e-37   -34.775   -36.115    -1.340     (0)  
   Ca(IO3)+        0.000e+00   0.000e+00   -53.720   -53.804    -0.084     (0)  
   Ca(S2O3)        0.000e+00   0.000e+00   -72.259   -72.259     0.000     (0)  
Cd            1.000e-03
   Cd+2            8.973e-04   4.150e-04    -3.047    -3.382    -0.335     (0)  
   CdCl+           3.564e-05   2.939e-05    -4.448    -4.532    -0.084     (0)  
   CdBr+           3.500e-05   2.886e-05    -4.456    -4.540    -0.084     (0)  
   Cd(SO4)         2.025e-05   2.025e-05    -4.694    -4.694     0.000     (0)  
   CdHPO4          1.009e-05   1.009e-05    -4.996    -4.996     0.000     (0)  
   Cd(OH)+         4.183e-07   3.450e-07    -6.378    -6.462    -0.084     (0)  
   Cd(NH3)+2       3.727e-07   1.723e-07    -6.429    -6.764    -0.335     (0)  
   CdI+            3.198e-07   2.638e-07    -6.495    -6.579    -0.084     (0)  
   Cd(HCO3)+       1.979e-07   1.632e-07    -6.704    -6.787    -0.084     (0)  
   Cd(CO3)         1.210e-07   1.210e-07    -6.917    -6.917     0.000     (0)  
   Cd(SO4)2-2      1.071e-07   4.950e-08    -6.970    -7.305    -0.335     (0)  
   CdCl2           9.299e-08   9.299e-08    -7.032    -7.032     0.000     (0)  
   CdBr2           7.991e-08   7.991e-08    -7.097    -7.097     0.000     (0)  
   Cd(H2PO4)+      1.852e-08   1.527e-08    -7.732    -7.816    -0.084     (0)  
   Cd(NH3)2+2      1.046e-10   4.838e-11    -9.980   -10.315    -0.335     (0)  
   CdBr3-          8.683e-11   7.160e-11   -10.061   -10.145    -0.084     (0)  
   CdCl3-          5.526e-11   4.557e-11   -10.258   -10.341    -0.084     (0)  
   Cd(OH)2         5.218e-11   5.218e-11   -10.283   -10.283     0.000     (0)  
   CdI2            3.669e-11   3.669e-11   -10.436   -10.436     0.000     (0)  
   Cd(CO3)2-2      9.608e-14   4.442e-14   -13.017   -13.352    -0.335     (0)  
   CdCl4-2         8.788e-15   4.063e-15   -14.056   -14.391    -0.335     (0)  
   CdI3-           3.030e-15   2.499e-15   -14.519   -14.602    -0.084     (0)  
   Cd(NH3)3+2      1.507e-15   6.966e-16   -14.822   -15.157    -0.335     (0)  
   Cd(OH)3-        2.518e-16   2.076e-16   -15.599   -15.683    -0.084     (0)  
   Cd4(OH)4+4      5.511e-17   2.518e-18   -16.259   -17.599    -1.340     (0)  
   CdI4-2          1.932e-19   8.932e-20   -18.714   -19.049    -0.335     (0)  
   Cd(SeO4)        1.366e-19   1.366e-19   -18.865   -18.865     0.000     (0)  
   Cd(NH3)4+2      4.429e-20   2.048e-20   -19.354   -19.689    -0.335     (0)  
   Cd(OH)4-2       2.965e-23   1.371e-23   -22.528   -22.863    -0.335     (0)  
   Cd(NO3)+        1.817e-24   1.499e-24   -23.741   -23.824    -0.084     (0)  
   Cd(NO3)2        0.000e+00   0.000e+00   -45.017   -45.017     0.000     (0)  
   CdHS+           0.000e+00   0.000e+00   -60.909   -60.993    -0.084     (0)  
   Cd(S2O3)        0.000e+00   0.000e+00   -71.724   -71.724     0.000     (0)  
   Cd(HS)2         0.000e+00   0.000e+00  -118.934  -118.934     0.000     (0)  
Cl            1.000e-03
   Cl-             9.159e-04   7.589e-04    -3.038    -3.120    -0.082     (0)  
   CdCl+           3.564e-05   2.939e-05    -4.448    -4.532    -0.084     (0)  
   AgCl            2.693e-05   2.693e-05    -4.570    -4.570     0.000     (0)  
   PbCl+           8.489e-06   7.000e-06    -5.071    -5.155    -0.084     (0)  
   AgCl2-          2.479e-06   2.044e-06    -5.606    -5.690    -0.084     (0)  
   CoCl+           1.543e-06   1.272e-06    -5.812    -5.896    -0.084     (0)  
   MgCl+           9.357e-07   7.716e-07    -6.029    -6.113    -0.084     (0)  
   EuCl+2          7.253e-07   3.355e-07    -6.139    -6.474    -0.335     (0)  
   SmCl+2          7.161e-07   3.312e-07    -6.145    -6.480    -0.335     (0)  
   SrCl+           7.084e-07   5.842e-07    -6.150    -6.233    -0.084     (0)  
   MnCl+           6.779e-07   5.590e-07    -6.169    -6.253    -0.084     (0)  
   HoCl+2          5.350e-07   2.475e-07    -6.272    -6.606    -0.335     (0)  
   CsCl            5.081e-07   5.081e-07    -6.294    -6.294     0.000     (0)  
   NiCl+           4.530e-07   3.736e-07    -6.344    -6.428    -0.084     (0)  
   RaCl+           3.202e-07   2.640e-07    -6.495    -6.578    -0.084     (0)  
   FeCl+           2.117e-07   1.746e-07    -6.674    -6.758    -0.084     (0)  
   AmCl+2          2.113e-07   9.774e-08    -6.675    -7.010    -0.335     (0)  
   CmCl+2          2.071e-07   9.580e-08    -6.684    -7.019    -0.335     (0)  
   CdCl2           9.299e-08   9.299e-08    -7.032    -7.032     0.000     (0)  
   NpO2Cl          7.290e-08   7.290e-08    -7.137    -7.137     0.000     (0)  
   RbCl            6.114e-08   6.114e-08    -7.214    -7.214     0.000     (0)  
   PbCl2           1.929e-08   1.929e-08    -7.715    -7.715     0.000     (0)  
   AgCl3-2         3.513e-09   1.624e-09    -8.454    -8.789    -0.335     (0)  
   MnCl2           3.781e-10   3.781e-10    -9.422    -9.422     0.000     (0)  
   CoCl2           2.721e-10   2.721e-10    -9.565    -9.565     0.000     (0)  
   RaCl2           2.004e-10   2.004e-10    -9.698    -9.698     0.000     (0)  
   CdCl3-          5.526e-11   4.557e-11   -10.258   -10.341    -0.084     (0)  
   EuCl2+          4.781e-11   3.943e-11   -10.321   -10.404    -0.084     (0)  
   FeCl2           2.899e-11   2.899e-11   -10.538   -10.538     0.000     (0)  
   HoCl2+          2.125e-11   1.753e-11   -10.673   -10.756    -0.084     (0)  
   UO2Cl+          1.936e-11   1.597e-11   -10.713   -10.797    -0.084     (0)  
   HCl             1.480e-11   1.480e-11   -10.830   -10.830     0.000     (0)  
   AgCl4-3         1.161e-11   2.046e-12   -10.935   -11.689    -0.754     (0)  
   AmCl2+          9.418e-12   7.768e-12   -11.026   -11.110    -0.084     (0)  
   CmCl2+          9.230e-12   7.613e-12   -11.035   -11.118    -0.084     (0)  
   PbCl3-          8.695e-12   7.170e-12   -11.061   -11.144    -0.084     (0)  
   PdCl+           5.789e-12   4.775e-12   -11.237   -11.321    -0.084     (0)  
   PdCl2           5.743e-12   5.743e-12   -11.241   -11.241     0.000     (0)  
   PdCl3-          2.104e-12   1.735e-12   -11.677   -11.761    -0.084     (0)  
   CrCl+2          1.446e-12   6.687e-13   -11.840   -12.175    -0.335     (0)  
   FeCl3-          9.250e-13   7.627e-13   -12.034   -12.118    -0.084     (0)  
   PdCl3(OH)-2     9.641e-14   4.457e-14   -13.016   -13.351    -0.335     (0)  
   MnCl3-          9.584e-14   7.903e-14   -13.018   -13.102    -0.084     (0)  
   PdCl4-2         1.797e-14   8.310e-15   -13.745   -14.080    -0.335     (0)  
   CdCl4-2         8.788e-15   4.063e-15   -14.056   -14.391    -0.335     (0)  
   FeCl+2          6.715e-15   3.105e-15   -14.173   -14.508    -0.335     (0)  
   PbCl4-2         6.036e-15   2.791e-15   -14.219   -14.554    -0.335     (0)  
   CoCl3-          4.663e-15   3.845e-15   -14.331   -14.415    -0.084     (0)  
   Cr(OH)Cl2       2.265e-15   2.265e-15   -14.645   -14.645     0.000     (0)  
   UO2Cl2          6.510e-16   6.510e-16   -15.186   -15.186     0.000     (0)  
   ThCl+3          5.588e-17   9.864e-18   -16.253   -17.006    -0.753     (0)  
   CrCl2+          2.878e-17   2.374e-17   -16.541   -16.625    -0.084     (0)  
   FeCl2+          1.432e-17   1.181e-17   -16.844   -16.928    -0.084     (0)  
   CrCl+           3.083e-18   2.542e-18   -17.511   -17.595    -0.084     (0)  
   CoCl4-2         2.631e-18   1.216e-18   -17.580   -17.915    -0.335     (0)  
   HfCl+3          1.074e-20   1.893e-21   -19.969   -20.723    -0.754     (0)  
   FeCl3           9.603e-22   9.603e-22   -21.018   -21.018     0.000     (0)  
   NpO2Cl+         4.855e-22   4.006e-22   -21.314   -21.397    -0.083     (0)  
   PuO2Cl+         2.228e-23   1.838e-23   -22.652   -22.736    -0.083     (0)  
   PuCl+3          7.221e-24   1.273e-24   -23.141   -23.895    -0.754     (0)  
   HfCl2+2         2.200e-24   1.017e-24   -23.658   -23.993    -0.335     (0)  
   CrO3Cl-         5.601e-25   4.618e-25   -24.252   -24.336    -0.084     (0)  
   NpCl+3          1.807e-26   3.186e-27   -25.743   -26.497    -0.754     (0)  
   FeCl4-          1.063e-26   8.762e-27   -25.974   -26.057    -0.084     (0)  
   PuO2Cl2         5.816e-28   5.816e-28   -27.235   -27.235     0.000     (0)  
   SbCl+2          2.472e-29   1.143e-29   -28.607   -28.942    -0.335     (0)  
   ICl2-           5.721e-31   4.717e-31   -30.243   -30.326    -0.084     (0)  
   SbCl2+          3.105e-32   2.560e-32   -31.508   -31.592    -0.084     (0)  
   ZrCl+3          1.684e-32   2.968e-33   -31.774   -32.528    -0.754     (0)  
   Sn(OH)Cl        1.614e-33   1.614e-33   -32.792   -32.792     0.000     (0)  
   ZrCl2+2         1.852e-35   8.563e-36   -34.732   -35.067    -0.335     (0)  
   SnCl+           8.166e-36   6.734e-36   -35.088   -35.172    -0.084     (0)  
   UCl+3           3.528e-36   6.221e-37   -35.452   -36.206    -0.754     (0)  
   SnCl2           2.283e-38   2.283e-38   -37.642   -37.642     0.000     (0)  
   SnCl3-          0.000e+00   0.000e+00   -40.718   -40.801    -0.084     (0)  
   SnCl4-2         0.000e+00   0.000e+00   -43.686   -44.021    -0.335     (0)  
   Cl2             0.000e+00   0.000e+00   -45.450   -45.450     0.000     (0)  
   UO2ClO3+        0.000e+00   0.000e+00   -90.624   -90.707    -0.084     (0)  
   ClO4-           0.000e+00   0.000e+00  -103.131  -103.211    -0.080     (0)  
Cm            1.000e-03
   Cm+3            4.119e-04   7.263e-05    -3.385    -4.139    -0.754     (0)  
   CmSiO(OH)3+2    2.755e-04   1.274e-04    -3.560    -3.895    -0.335     (0)  
   Cm(OH)+2        9.906e-05   4.580e-05    -4.004    -4.339    -0.335     (0)  
   CmPO4           9.270e-05   9.270e-05    -4.033    -4.033     0.000     (0)  
   CmSO4+          5.165e-05   4.260e-05    -4.287    -4.371    -0.084     (0)  
   CmCO3+          4.067e-05   3.356e-05    -4.391    -4.474    -0.083     (0)  
   Cm(HPO4)+       1.025e-05   8.454e-06    -4.989    -5.073    -0.084     (0)  
   CmF+2           8.254e-06   3.816e-06    -5.083    -5.418    -0.335     (0)  
   Cm(OH)2+        6.992e-06   5.763e-06    -5.155    -5.239    -0.084     (0)  
   CmHCO3+2        2.460e-06   1.137e-06    -5.609    -5.944    -0.335     (0)  
   CmCl+2          2.071e-07   9.580e-08    -6.684    -7.019    -0.335     (0)  
   Cm(SO4)2-       1.417e-07   1.169e-07    -6.848    -6.932    -0.084     (0)  
   CmF3            1.006e-07   1.006e-07    -6.997    -6.997     0.000     (0)  
   Cm(PO4)2-3      8.257e-08   1.455e-08    -7.083    -7.837    -0.754     (0)  
   CmF2+           2.431e-08   2.005e-08    -7.614    -7.698    -0.084     (0)  
   Cm(H2PO4)+2     2.301e-08   1.064e-08    -7.638    -7.973    -0.335     (0)  
   Cm(HPO4)2-      1.848e-08   1.524e-08    -7.733    -7.817    -0.084     (0)  
   Cm(CO3)2-       1.186e-08   9.788e-09    -7.926    -8.009    -0.083     (0)  
   Cm(OH)3         4.575e-10   4.575e-10    -9.340    -9.340     0.000     (0)  
   CmCl2+          9.230e-12   7.613e-12   -11.035   -11.118    -0.084     (0)  
   Ca(Cm(OH)3)+2   3.456e-13   1.598e-13   -12.461   -12.796    -0.335     (0)  
   Cm(CO3)3-3      3.230e-14   5.695e-15   -13.491   -14.245    -0.754     (0)  
   Cm(OH)4-        1.753e-17   1.446e-17   -16.756   -16.840    -0.084     (0)  
   Ca2(Cm(OH)4)+3   5.016e-20   8.842e-21   -19.300   -20.053    -0.754     (0)  
   CmNO3+2         4.205e-24   1.944e-24   -23.376   -23.711    -0.335     (0)  
   Ca3(Cm(OH)6)+3   6.967e-33   1.228e-33   -32.157   -32.911    -0.754     (0)  
Co            1.000e-03
   Co+2            9.754e-04   4.511e-04    -3.011    -3.346    -0.335     (0)  
   CoSO4           1.873e-05   1.873e-05    -4.727    -4.727     0.000     (0)  
   Co(OH)+         3.219e-06   2.655e-06    -5.492    -5.576    -0.084     (0)  
   CoCl+           1.543e-06   1.272e-06    -5.812    -5.896    -0.084     (0)  
   CoHCO3+         5.282e-07   4.356e-07    -6.277    -6.361    -0.084     (0)  
   CoF+            3.619e-07   2.984e-07    -6.441    -6.525    -0.084     (0)  
   CoHPO4          1.863e-07   1.863e-07    -6.730    -6.730     0.000     (0)  
   CoCO3           4.457e-08   4.457e-08    -7.351    -7.351     0.000     (0)  
   Co(OH)2         1.132e-08   1.132e-08    -7.946    -7.946     0.000     (0)  
   Co2(OH)+3       1.707e-09   3.008e-10    -8.768    -9.522    -0.754     (0)  
   CoCl2           2.721e-10   2.721e-10    -9.565    -9.565     0.000     (0)  
   Co4(OH)4+4      1.192e-14   5.445e-16   -13.924   -15.264    -1.340     (0)  
   Co(OH)3-        1.089e-14   8.984e-15   -13.963   -14.047    -0.084     (0)  
   CoCl3-          4.663e-15   3.845e-15   -14.331   -14.415    -0.084     (0)  
   CoCl4-2         2.631e-18   1.216e-18   -17.580   -17.915    -0.335     (0)  
   Co(SeO4)        3.996e-19   3.996e-19   -18.398   -18.398     0.000     (0)  
   Co(OH)4-2       3.700e-22   1.711e-22   -21.432   -21.767    -0.335     (0)  
   CoHS+           0.000e+00   0.000e+00   -62.583   -62.667    -0.084     (0)  
   CoS2O3          0.000e+00   0.000e+00   -72.098   -72.098     0.000     (0)  
   Co(HS)2         0.000e+00   0.000e+00  -124.558  -124.558     0.000     (0)  
Cr(2)         3.612e-18
   CrCl+           3.083e-18   2.542e-18   -17.511   -17.595    -0.084     (0)  
   Cr(OH)+         5.110e-19   4.214e-19   -18.292   -18.375    -0.084     (0)  
   Cr+2            1.820e-20   8.414e-21   -19.740   -20.075    -0.335     (0)  
Cr(3)         1.000e-03
   Cr(OH)3         9.642e-04   9.642e-04    -3.016    -3.016     0.000     (0)  
   Cr(OH)2+        3.223e-05   2.657e-05    -4.492    -4.576    -0.084     (0)  
   Cr(OH)+2        1.737e-06   8.031e-07    -5.760    -6.095    -0.335     (0)  
   Cr(OH)3(H2PO4)-   4.110e-07   3.389e-07    -6.386    -6.470    -0.084     (0)  
   Cr3(OH)4+5      2.937e-07   2.366e-09    -6.532    -8.626    -2.094     (0)  
   Cr(HPO4)+       2.659e-07   2.193e-07    -6.575    -6.659    -0.084     (0)  
   Cr(OH)CO3       1.229e-07   1.229e-07    -6.910    -6.910     0.000     (0)  
   Cr(OH)3(HPO4)-2   7.001e-08   3.237e-08    -7.155    -7.490    -0.335     (0)  
   Cr(OH)4-        3.530e-08   2.911e-08    -7.452    -7.536    -0.084     (0)  
   Cr2(OH)2+4      9.763e-09   4.462e-10    -8.010    -9.351    -1.340     (0)  
   CrSO4+          2.173e-09   1.792e-09    -8.663    -8.747    -0.084     (0)  
   CrF+2           1.551e-09   7.170e-10    -8.809    -9.144    -0.335     (0)  
   Cr+3            1.198e-09   2.114e-10    -8.921    -9.675    -0.754     (0)  
   Cr(OH)(CO3)2-2   8.305e-10   3.840e-10    -9.081    -9.416    -0.335     (0)  
   CrF2+           2.290e-10   1.888e-10    -9.640    -9.724    -0.084     (0)  
   Cr(OH)3(PO4)-3   4.017e-11   7.081e-12   -10.396   -11.150    -0.754     (0)  
   Cr(OH)3(H2PO4)2-2   2.143e-12   9.909e-13   -11.669   -12.004    -0.335     (0)  
   CrF3            1.572e-12   1.572e-12   -11.804   -11.804     0.000     (0)  
   CrCl+2          1.446e-12   6.687e-13   -11.840   -12.175    -0.335     (0)  
   Cr(H2PO4)+2     9.682e-14   4.477e-14   -13.014   -13.349    -0.335     (0)  
   CrBr+2          5.276e-14   2.439e-14   -13.278   -13.613    -0.335     (0)  
   Cr(OH)4(HPO4)(H2PO4)-4   2.728e-15   1.247e-16   -14.564   -15.904    -1.340     (0)  
   Cr(OH)Cl2       2.265e-15   2.265e-15   -14.645   -14.645     0.000     (0)  
   Cr(OH)4(CO3)-3   1.421e-15   2.504e-16   -14.848   -15.601    -0.754     (0)  
   CrCl2+          2.878e-17   2.374e-17   -16.541   -16.625    -0.084     (0)  
Cr(6)         1.428e-15
   CrO4-2          1.094e-15   5.058e-16   -14.961   -15.296    -0.335     (0)  
   HCrO4-          2.031e-16   1.675e-16   -15.692   -15.776    -0.084     (0)  
   CaCrO4          1.310e-16   1.310e-16   -15.883   -15.883     0.000     (0)  
   FeCrO4+         6.303e-21   5.198e-21   -20.200   -20.284    -0.084     (0)  
   HCrPO7-2        1.497e-22   6.921e-23   -21.825   -22.160    -0.335     (0)  
   H2CrO4          1.057e-23   1.057e-23   -22.976   -22.976     0.000     (0)  
   CrO3Cl-         5.601e-25   4.618e-25   -24.252   -24.336    -0.084     (0)  
   H2CrPO7-        3.749e-27   3.092e-27   -26.426   -26.510    -0.084     (0)  
   Cr2O7-2         3.114e-30   1.440e-30   -29.507   -29.842    -0.335     (0)  
Cs            1.000e-03
   Cs+             9.989e-04   8.237e-04    -3.000    -3.084    -0.084     (0)  
   CsCl            5.081e-07   5.081e-07    -6.294    -6.294     0.000     (0)  
   CsBr            4.876e-07   4.876e-07    -6.312    -6.312     0.000     (0)  
   CsI             4.775e-08   4.775e-08    -7.321    -7.321     0.000     (0)  
   CsF             7.183e-09   7.183e-09    -8.144    -8.144     0.000     (0)  
   Cs(OH)          1.886e-12   1.886e-12   -11.725   -11.725     0.000     (0)  
Cu(1)         4.588e-06
   Cu+             4.588e-06   3.783e-06    -5.338    -5.422    -0.084     (0)  
Cu(2)         9.954e-04
   Cu(B(OH)4)+     7.412e-04   6.112e-04    -3.130    -3.214    -0.084     (0)  
   Cu+2            1.874e-04   8.668e-05    -3.727    -4.062    -0.335     (0)  
   Cu(B(OH)4)2     6.675e-05   6.675e-05    -4.176    -4.176     0.000     (0)  
   Cu(B(OH)4)3-    2.221e-08   1.831e-08    -7.654    -7.737    -0.084     (0)  
   Cu(SeO4)        2.428e-20   2.428e-20   -19.615   -19.615     0.000     (0)  
Eu(2)         1.780e-14
   Eu+2            1.780e-14   8.229e-15   -13.750   -14.085    -0.335     (0)  
Eu(3)         1.000e-03
   Eu+3            4.356e-04   7.682e-05    -3.361    -4.115    -0.754     (0)  
   Eu(PO4)         1.956e-04   1.956e-04    -3.709    -3.709     0.000     (0)  
   EuSiO(OH)3+2    1.427e-04   6.598e-05    -3.846    -4.181    -0.335     (0)  
   EuF+2           7.427e-05   3.435e-05    -4.129    -4.464    -0.335     (0)  
   Eu(SO4)+        6.129e-05   5.055e-05    -4.213    -4.296    -0.084     (0)  
   Eu(CO3)+        4.304e-05   3.550e-05    -4.366    -4.450    -0.084     (0)  
   Eu(OH)+2        2.632e-05   1.217e-05    -4.580    -4.915    -0.335     (0)  
   Eu(HPO4)+       1.679e-05   1.385e-05    -4.775    -4.859    -0.084     (0)  
   Eu(OH)2+        1.857e-06   1.531e-06    -5.731    -5.815    -0.084     (0)  
   EuCl+2          7.253e-07   3.355e-07    -6.139    -6.474    -0.335     (0)  
   Eu(SO4)2-       6.396e-07   5.273e-07    -6.194    -6.278    -0.084     (0)  
   Eu(PO4)2-3      5.142e-07   9.064e-08    -6.289    -7.043    -0.754     (0)  
   Eu(HCO3)+2      2.602e-07   1.203e-07    -6.585    -6.920    -0.335     (0)  
   EuF2+           1.446e-07   1.193e-07    -6.840    -6.923    -0.084     (0)  
   EuBr+2          1.422e-07   6.573e-08    -6.847    -7.182    -0.335     (0)  
   Eu(HPO4)2-      4.798e-08   3.956e-08    -7.319    -7.403    -0.084     (0)  
   EuF3            2.799e-08   2.799e-08    -7.553    -7.553     0.000     (0)  
   Eu(CO3)2-       2.506e-08   2.066e-08    -7.601    -7.685    -0.084     (0)  
   Eu(H2PO4)+2     2.434e-08   1.126e-08    -7.614    -7.949    -0.335     (0)  
   Eu(OH)3         4.838e-10   4.838e-10    -9.315    -9.315     0.000     (0)  
   EuCl2+          4.781e-11   3.943e-11   -10.321   -10.404    -0.084     (0)  
   EuBr2+          1.753e-11   1.446e-11   -10.756   -10.840    -0.084     (0)  
   Ca(Eu(OH)3)+2   3.655e-13   1.690e-13   -12.437   -12.772    -0.335     (0)  
   Eu(CO3)3-3      5.418e-14   9.546e-15   -13.266   -14.020    -0.754     (0)  
   Eu(OH)4-        1.853e-17   1.528e-17   -16.732   -16.816    -0.084     (0)  
   Ca2(Eu(OH)4)+3   5.305e-20   9.351e-21   -19.275   -20.029    -0.754     (0)  
   Eu(NO3)+2       3.372e-24   1.560e-24   -23.472   -23.807    -0.335     (0)  
   Ca3(Eu(OH)6)+3   7.368e-33   1.299e-33   -32.133   -32.886    -0.754     (0)  
F             1.000e-03
   Al(OH)2F        3.829e-04   3.829e-04    -3.417    -3.417     0.000     (0)  
   MnF2            1.771e-04   1.771e-04    -3.752    -3.752     0.000     (0)  
   EuF+2           7.427e-05   3.435e-05    -4.129    -4.464    -0.335     (0)  
   SmF+2           6.099e-05   2.821e-05    -4.215    -4.550    -0.335     (0)  
   HoF+2           5.737e-05   2.654e-05    -4.241    -4.576    -0.335     (0)  
   F-              2.536e-05   2.092e-05    -4.596    -4.680    -0.084     (0)  
   AmF+2           8.419e-06   3.894e-06    -5.075    -5.410    -0.335     (0)  
   CmF+2           8.254e-06   3.816e-06    -5.083    -5.418    -0.335     (0)  
   AlF2+           4.988e-06   4.113e-06    -5.302    -5.386    -0.084     (0)  
   MnF3-           1.788e-06   1.475e-06    -5.748    -5.831    -0.084     (0)  
   Al(OH)2F2-      1.612e-06   1.329e-06    -5.793    -5.876    -0.084     (0)  
   PbF+            1.581e-06   1.304e-06    -5.801    -5.885    -0.084     (0)  
   AlF+2           1.284e-06   5.939e-07    -5.891    -6.226    -0.335     (0)  
   AlF3            9.653e-07   9.653e-07    -6.015    -6.015     0.000     (0)  
   MgF+            7.268e-07   5.994e-07    -6.139    -6.222    -0.084     (0)  
   CoF+            3.619e-07   2.984e-07    -6.441    -6.525    -0.084     (0)  
   NiF+            2.795e-07   2.305e-07    -6.554    -6.637    -0.084     (0)  
   NpO2F           2.710e-07   2.710e-07    -6.567    -6.567     0.000     (0)  
   RbF             1.502e-07   1.502e-07    -6.823    -6.823     0.000     (0)  
   EuF2+           1.446e-07   1.193e-07    -6.840    -6.923    -0.084     (0)  
   SmF2+           1.188e-07   9.793e-08    -6.925    -7.009    -0.084     (0)  
   HoF2+           1.042e-07   8.597e-08    -6.982    -7.066    -0.084     (0)  
   CmF3            1.006e-07   1.006e-07    -6.997    -6.997     0.000     (0)  
   CaF+            9.716e-08   8.012e-08    -7.012    -7.096    -0.084     (0)  
   HfF4            7.743e-08   7.743e-08    -7.111    -7.111     0.000     (0)  
   MnF+            6.629e-08   5.466e-08    -7.179    -7.262    -0.084     (0)  
   UO2F+           5.217e-08   4.302e-08    -7.283    -7.366    -0.084     (0)  
   AmF3            4.481e-08   4.481e-08    -7.349    -7.349     0.000     (0)  
   FeF+            4.227e-08   3.486e-08    -7.374    -7.458    -0.084     (0)  
   RaF+            3.355e-08   2.766e-08    -7.474    -7.558    -0.084     (0)  
   BaF+            2.811e-08   2.318e-08    -7.551    -7.635    -0.084     (0)  
   EuF3            2.799e-08   2.799e-08    -7.553    -7.553     0.000     (0)  
   AmF2+           2.480e-08   2.046e-08    -7.605    -7.689    -0.084     (0)  
   CmF2+           2.431e-08   2.005e-08    -7.614    -7.698    -0.084     (0)  
   SrF+            2.294e-08   1.892e-08    -7.639    -7.723    -0.084     (0)  
   CsF             7.183e-09   7.183e-09    -8.144    -8.144     0.000     (0)  
   NaF             6.120e-09   6.120e-09    -8.213    -8.213     0.000     (0)  
   AlF4-           5.874e-09   4.844e-09    -8.231    -8.315    -0.084     (0)  
   UO2F2           4.209e-09   4.209e-09    -8.376    -8.376     0.000     (0)  
   MnF4-2          3.839e-09   1.775e-09    -8.416    -8.751    -0.335     (0)  
   HfF3+           2.100e-09   1.731e-09    -8.678    -8.762    -0.084     (0)  
   ThF4            1.887e-09   1.887e-09    -8.724    -8.724     0.000     (0)  
   CrF+2           1.551e-09   7.170e-10    -8.809    -9.144    -0.335     (0)  
   ThF3+           1.346e-09   1.110e-09    -8.871    -8.955    -0.084     (0)  
   BF(OH)3-        1.156e-09   9.529e-10    -8.937    -9.021    -0.084     (0)  
   ThF2+2          1.047e-09   4.840e-10    -8.980    -9.315    -0.335     (0)  
   CrF2+           2.290e-10   1.888e-10    -9.640    -9.724    -0.084     (0)  
   PbF2            1.499e-10   1.499e-10    -9.824    -9.824     0.000     (0)  
   ThF+3           2.281e-11   4.021e-12   -10.642   -11.396    -0.754     (0)  
   AlOHF2          2.108e-11   2.108e-11   -10.676   -10.676     0.000     (0)  
   SrF2            2.076e-11   2.076e-11   -10.683   -10.683     0.000     (0)  
   UO2F3-          1.255e-11   1.034e-11   -10.901   -10.985    -0.084     (0)  
   HfF2+2          1.054e-11   4.874e-12   -10.977   -11.312    -0.335     (0)  
   FeF+2           9.939e-12   4.595e-12   -11.003   -11.338    -0.335     (0)  
   FeF2+           5.453e-12   4.496e-12   -11.263   -11.347    -0.084     (0)  
   MnF5-3          4.202e-12   7.408e-13   -11.377   -12.130    -0.754     (0)  
   PuO2F           3.124e-12   3.124e-12   -11.505   -11.505     0.000     (0)  
   CrF3            1.572e-12   1.572e-12   -11.804   -11.804     0.000     (0)  
   BF2(OH)2-       2.592e-13   2.137e-13   -12.586   -12.670    -0.084     (0)  
   FeF3            1.490e-13   1.490e-13   -12.827   -12.827     0.000     (0)  
   UO2F4-2         4.078e-15   1.884e-15   -14.390   -14.725    -0.335     (0)  
   HfF+3           3.641e-15   6.418e-16   -14.439   -15.193    -0.754     (0)  
   MnF6-4          2.139e-15   9.776e-17   -14.670   -16.010    -1.340     (0)  
   PuF2+2          1.260e-16   5.830e-17   -15.899   -16.234    -0.335     (0)  
   PuF3+           3.801e-17   3.135e-17   -16.420   -16.504    -0.084     (0)  
   NpF4            2.265e-18   2.265e-18   -17.645   -17.645     0.000     (0)  
   PuF+3           2.182e-18   3.847e-19   -17.661   -18.415    -0.754     (0)  
   NpF2+2          6.293e-19   2.911e-19   -18.201   -18.536    -0.335     (0)  
   BF3(OH)-        5.948e-19   4.905e-19   -18.226   -18.309    -0.084     (0)  
   NpO2F+          1.980e-19   1.633e-19   -18.703   -18.787    -0.084     (0)  
   NpF3+           1.653e-19   1.363e-19   -18.782   -18.865    -0.084     (0)  
   ZrF4            2.479e-20   2.479e-20   -19.606   -19.606     0.000     (0)  
   ZrF5-           1.943e-20   1.602e-20   -19.711   -19.795    -0.084     (0)  
   NpF+3           1.437e-20   2.532e-21   -19.843   -20.596    -0.754     (0)  
   PuO2F+          1.313e-20   1.083e-20   -19.882   -19.965    -0.084     (0)  
   ZrF3+           5.853e-21   4.827e-21   -20.233   -20.316    -0.084     (0)  
   NpO2F2          3.661e-21   3.661e-21   -20.436   -20.436     0.000     (0)  
   ZrF6-2          2.346e-21   1.084e-21   -20.630   -20.965    -0.335     (0)  
   ZrF2+2          3.375e-22   1.560e-22   -21.472   -21.807    -0.335     (0)  
   PuO2F2          1.110e-22   1.110e-22   -21.955   -21.955     0.000     (0)  
   BF4-            5.072e-24   4.182e-24   -23.295   -23.379    -0.084     (0)  
   PuO2F3-         6.158e-25   5.078e-25   -24.211   -24.294    -0.084     (0)  
   SbF3            3.462e-25   3.462e-25   -24.461   -24.461     0.000     (0)  
   ZrF+3           1.572e-25   2.771e-26   -24.803   -25.557    -0.754     (0)  
   SbF2+           3.331e-26   2.747e-26   -25.477   -25.561    -0.084     (0)  
   SbF+2           2.531e-27   1.170e-27   -26.597   -26.932    -0.335     (0)  
   UF3+            1.345e-27   1.109e-27   -26.871   -26.955    -0.084     (0)  
   UF4             6.540e-28   6.540e-28   -27.184   -27.184     0.000     (0)  
   UF2+2           5.364e-28   2.481e-28   -27.271   -27.605    -0.335     (0)  
   UF+3            4.873e-30   8.592e-31   -29.312   -30.066    -0.754     (0)  
   UF5-            4.073e-31   3.358e-31   -30.390   -30.474    -0.084     (0)  
   UF6-2           1.785e-33   8.252e-34   -32.748   -33.083    -0.335     (0)  
   SnF+            1.209e-33   9.967e-34   -32.918   -33.001    -0.084     (0)  
   SnF2            9.100e-35   9.100e-35   -34.041   -34.041     0.000     (0)  
   SnF3-           9.404e-37   7.754e-37   -36.027   -36.110    -0.084     (0)  
Fe(2)         3.677e-04
   Fe+2            3.604e-04   1.666e-04    -3.443    -3.778    -0.335     (0)  
   Fe(SO4)         5.496e-06   5.496e-06    -5.260    -5.260     0.000     (0)  
   Fe(OH)+         6.387e-07   5.266e-07    -6.195    -6.278    -0.084     (0)  
   Fe(CO3)         4.749e-07   4.749e-07    -6.323    -6.323     0.000     (0)  
   Fe(HPO4)        2.386e-07   2.386e-07    -6.622    -6.622     0.000     (0)  
   FeCl+           2.117e-07   1.746e-07    -6.674    -6.758    -0.084     (0)  
   FeHCO3+         6.923e-08   5.709e-08    -7.160    -7.243    -0.084     (0)  
   Fe(H2PO4)+      5.774e-08   4.761e-08    -7.239    -7.322    -0.084     (0)  
   FeF+            4.227e-08   3.486e-08    -7.374    -7.458    -0.084     (0)  
   Fe(NH3)+2       9.018e-09   4.169e-09    -8.045    -8.380    -0.335     (0)  
   FeCO3OH-        1.097e-09   9.042e-10    -8.960    -9.044    -0.084     (0)  
   Fe(OH)2         4.181e-11   4.181e-11   -10.379   -10.379     0.000     (0)  
   FeCl2           2.899e-11   2.899e-11   -10.538   -10.538     0.000     (0)  
   Fe(HSO4)+       4.941e-12   4.075e-12   -11.306   -11.390    -0.084     (0)  
   FeCl3-          9.250e-13   7.627e-13   -12.034   -12.118    -0.084     (0)  
   Fe(CO3)2-2      3.439e-13   1.590e-13   -12.464   -12.799    -0.335     (0)  
   Fe(NH3)2+2      7.135e-14   3.299e-14   -13.147   -13.482    -0.335     (0)  
   Fe(OH)3-        2.539e-15   2.094e-15   -14.595   -14.679    -0.084     (0)  
   Fe(SeO4)        1.511e-19   1.511e-19   -18.821   -18.821     0.000     (0)  
   Fe(OH)4-2       3.595e-22   1.662e-22   -21.444   -21.779    -0.335     (0)  
   Fe(NH3)4+2      3.548e-24   1.641e-24   -23.450   -23.785    -0.335     (0)  
   Fe(HS)+         0.000e+00   0.000e+00   -64.345   -64.429    -0.084     (0)  
   Fe(HS)2         0.000e+00   0.000e+00  -127.310  -127.310     0.000     (0)  
Fe(3)         6.323e-04
   FeCO3OH         5.449e-04   5.449e-04    -3.264    -3.264     0.000     (0)  
   Fe(OH)3         4.477e-05   4.477e-05    -4.349    -4.349     0.000     (0)  
   Fe(OH)2+        4.217e-05   3.477e-05    -4.375    -4.459    -0.084     (0)  
   Fe(OH)4-        4.948e-07   4.080e-07    -6.306    -6.389    -0.084     (0)  
   Fe(OH)+2        2.272e-08   1.051e-08    -7.644    -7.978    -0.335     (0)  
   Fe(H3SiO4)+2    2.889e-10   1.336e-10    -9.539    -9.874    -0.335     (0)  
   Fe(B(OH)4)2+    1.871e-10   1.543e-10    -9.728    -9.812    -0.084     (0)  
   Fe(B(OH)4)+2    7.000e-11   3.237e-11   -10.155   -10.490    -0.335     (0)  
   Fe(HPO4)+       4.915e-11   4.053e-11   -10.309   -10.392    -0.084     (0)  
   FeF+2           9.939e-12   4.595e-12   -11.003   -11.338    -0.335     (0)  
   FeF2+           5.453e-12   4.496e-12   -11.263   -11.347    -0.084     (0)  
   Fe+3            9.239e-13   1.629e-13   -12.034   -12.788    -0.754     (0)  
   Fe(SO4)+        5.174e-13   4.267e-13   -12.286   -12.370    -0.084     (0)  
   Fe(CO3)3-3      3.162e-13   5.574e-14   -12.500   -13.254    -0.754     (0)  
   FeF3            1.490e-13   1.490e-13   -12.827   -12.827     0.000     (0)  
   Fe2(OH)2+4      6.504e-14   2.972e-15   -13.187   -14.527    -1.340     (0)  
   Fe(SeO3)+       5.409e-14   4.460e-14   -13.267   -13.351    -0.084     (0)  
   Fe(H2PO4)+2     5.404e-14   2.499e-14   -13.267   -13.602    -0.335     (0)  
   FeCl+2          6.715e-15   3.105e-15   -14.173   -14.508    -0.335     (0)  
   Fe3(OH)4+5      2.680e-15   2.159e-17   -14.572   -16.666    -2.094     (0)  
   Fe(SO4)2-       2.149e-15   1.772e-15   -14.668   -14.752    -0.084     (0)  
   FeBr+2          8.494e-16   3.927e-16   -15.071   -15.406    -0.335     (0)  
   FeI+2           2.291e-16   1.059e-16   -15.640   -15.975    -0.335     (0)  
   FeCl2+          1.432e-17   1.181e-17   -16.844   -16.928    -0.084     (0)  
   FeBr2+          3.632e-19   2.995e-19   -18.440   -18.524    -0.084     (0)  
   FeHSO4+2        2.163e-19   1.000e-19   -18.665   -19.000    -0.335     (0)  
   Fe(HSeO3)+2     1.529e-19   7.069e-20   -18.816   -19.151    -0.335     (0)  
   FeCrO4+         6.303e-21   5.198e-21   -20.200   -20.284    -0.084     (0)  
   FeCl3           9.603e-22   9.603e-22   -21.018   -21.018     0.000     (0)  
   FeCl4-          1.063e-26   8.762e-27   -25.974   -26.057    -0.084     (0)  
   Fe(NO3)+2       3.930e-33   1.817e-33   -32.406   -32.741    -0.335     (0)  
   FeS2O3+         0.000e+00   0.000e+00   -79.607   -79.690    -0.084     (0)  
H(0)          1.664e-25
   H2              8.319e-26   8.319e-26   -25.080   -25.080     0.000     (0)  
Hf            1.000e-03
   Hf(OH)4         9.904e-04   9.904e-04    -3.004    -3.004     0.000     (0)  
   Hf(OH)5-        9.534e-06   7.862e-06    -5.021    -5.104    -0.084     (0)  
   HfF4            7.743e-08   7.743e-08    -7.111    -7.111     0.000     (0)  
   Hf(CO3)4-4      3.135e-09   1.432e-10    -8.504    -9.844    -1.340     (0)  
   HfF3+           2.100e-09   1.731e-09    -8.678    -8.762    -0.084     (0)  
   Hf(OH)6-2       5.374e-11   2.485e-11   -10.270   -10.605    -0.335     (0)  
   HfF2+2          1.054e-11   4.874e-12   -10.977   -11.312    -0.335     (0)  
   Hf(OH)+3        5.629e-13   9.923e-14   -12.250   -13.003    -0.754     (0)  
   HfF+3           3.641e-15   6.418e-16   -14.439   -15.193    -0.754     (0)  
   Hf(SO4)2        8.780e-18   8.780e-18   -17.056   -17.056     0.000     (0)  
   HfSO4+2         8.133e-18   3.760e-18   -17.090   -17.425    -0.335     (0)  
   Hf+4            3.437e-19   1.574e-20   -18.464   -19.803    -1.339     (0)  
   HfCl+3          1.074e-20   1.893e-21   -19.969   -20.723    -0.754     (0)  
   HfBr+3          1.030e-22   1.816e-23   -21.987   -22.741    -0.754     (0)  
   HfCl2+2         2.200e-24   1.017e-24   -23.658   -23.993    -0.335     (0)  
   HfI+3           4.830e-25   8.514e-26   -24.316   -25.070    -0.754     (0)  
   HfNO3+3         7.913e-39   1.395e-39   -38.102   -38.855    -0.754     (0)  
   Hf(NO3)2+2      0.000e+00   0.000e+00   -58.783   -59.118    -0.335     (0)  
Hg(1)         4.069e-10
   Hg2+2           2.035e-10   9.408e-11    -9.692   -10.026    -0.335     (0)  
Hg(2)         1.000e-03
   HgSe            1.000e-03   1.000e-03    -3.000    -3.000     0.000     (0)  
   Hg+2            8.446e-17   3.906e-17   -16.073   -16.408    -0.335     (0)  
   Hg(SeO3)2-2     2.249e-25   1.040e-25   -24.648   -24.983    -0.335     (0)  
   HgSe2-2         1.560e-32   7.215e-33   -31.807   -32.142    -0.335     (0)  
Ho            1.000e-03
   Ho(PO4)         3.796e-04   3.796e-04    -3.421    -3.421     0.000     (0)  
   Ho+3            3.365e-04   5.934e-05    -3.473    -4.227    -0.754     (0)  
   HoSiO(OH)3+2    1.102e-04   5.097e-05    -3.958    -4.293    -0.335     (0)  
   HoF+2           5.737e-05   2.654e-05    -4.241    -4.576    -0.335     (0)  
   Ho(CO3)+        4.186e-05   3.453e-05    -4.378    -4.462    -0.084     (0)  
   Ho(SO4)+        3.761e-05   3.102e-05    -4.425    -4.508    -0.084     (0)  
   Ho(HPO4)+       1.633e-05   1.347e-05    -4.787    -4.871    -0.084     (0)  
   Ho(OH)+2        1.615e-05   7.466e-06    -4.792    -5.127    -0.335     (0)  
   Ho(PO4)2-3      1.734e-06   3.056e-07    -5.761    -6.515    -0.754     (0)  
   Ho(OH)2+        1.435e-06   1.182e-06    -5.843    -5.927    -0.084     (0)  
   HoCl+2          5.350e-07   2.475e-07    -6.272    -6.606    -0.335     (0)  
   Ho(SO4)2-       2.476e-07   2.041e-07    -6.606    -6.690    -0.084     (0)  
   Ho(HCO3)+2      2.361e-07   1.092e-07    -6.627    -6.962    -0.335     (0)  
   HoF2+           1.042e-07   8.597e-08    -6.982    -7.066    -0.084     (0)  
   Ho(HPO4)2-      7.395e-08   6.098e-08    -7.131    -7.215    -0.084     (0)  
   Ho(CO3)2-       4.862e-08   4.008e-08    -7.313    -7.397    -0.084     (0)  
   Ho(H2PO4)+2     1.493e-08   6.907e-09    -7.826    -8.161    -0.335     (0)  
   Ho(OH)3         3.737e-10   3.737e-10    -9.428    -9.428     0.000     (0)  
   HoCl2+          2.125e-11   1.753e-11   -10.673   -10.756    -0.084     (0)  
   Ca(Ho(OH)3)+2   2.824e-13   1.305e-13   -12.549   -12.884    -0.335     (0)  
   Ho(CO3)3-3      4.185e-14   7.374e-15   -13.378   -14.132    -0.754     (0)  
   Ho(OH)4-        1.432e-17   1.181e-17   -16.844   -16.928    -0.084     (0)  
   Ca2(Ho(OH)4)+3   4.098e-20   7.223e-21   -19.387   -20.141    -0.754     (0)  
   Ho(NO3)+2       5.079e-25   2.349e-25   -24.294   -24.629    -0.335     (0)  
   Ca3(Ho(OH)6)+3   5.692e-33   1.003e-33   -32.245   -32.999    -0.754     (0)  
I(-1)         1.000e-03
   AgI             3.744e-04   3.744e-04    -3.427    -3.427     0.000     (0)  
   AgI2-           3.092e-04   2.550e-04    -3.510    -3.593    -0.084     (0)  
   I-              6.265e-06   5.167e-06    -5.203    -5.287    -0.084     (0)  
   CdI+            3.198e-07   2.638e-07    -6.495    -6.579    -0.084     (0)  
   PbI+            2.004e-07   1.652e-07    -6.698    -6.782    -0.084     (0)  
   AgI3-2          1.083e-07   5.009e-08    -6.965    -7.300    -0.335     (0)  
   CsI             4.775e-08   4.775e-08    -7.321    -7.321     0.000     (0)  
   PdI+            7.866e-09   6.486e-09    -8.104    -8.188    -0.084     (0)  
   MgI+            4.307e-09   3.552e-09    -8.366    -8.450    -0.084     (0)  
   MnI+            3.928e-09   3.239e-09    -8.406    -8.490    -0.084     (0)  
   SrI+            3.920e-09   3.233e-09    -8.407    -8.490    -0.084     (0)  
   CaI+            3.804e-09   3.137e-09    -8.420    -8.504    -0.084     (0)  
   RbI             6.157e-10   6.157e-10    -9.211    -9.211     0.000     (0)  
   PdI2            4.219e-10   4.219e-10    -9.375    -9.375     0.000     (0)  
   PdI4-2          3.363e-10   1.555e-10    -9.473    -9.808    -0.335     (0)  
   NaI             1.287e-10   1.287e-10    -9.891    -9.891     0.000     (0)  
   KI              1.147e-10   1.147e-10    -9.941    -9.941     0.000     (0)  
   CdI2            3.669e-11   3.669e-11   -10.436   -10.436     0.000     (0)  
   PdI3-           3.328e-11   2.744e-11   -10.478   -10.562    -0.084     (0)  
   PbI2            1.263e-11   1.263e-11   -10.899   -10.899     0.000     (0)  
   PuI+2           1.831e-13   8.471e-14   -12.737   -13.072    -0.335     (0)  
   MgI2            1.299e-14   1.299e-14   -13.886   -13.886     0.000     (0)  
   CaI2            1.121e-14   1.121e-14   -13.950   -13.950     0.000     (0)  
   SrI2            1.103e-14   1.103e-14   -13.957   -13.957     0.000     (0)  
   CdI3-           3.030e-15   2.499e-15   -14.519   -14.602    -0.084     (0)  
   PbI3-           3.617e-16   2.983e-16   -15.442   -15.525    -0.084     (0)  
   FeI+2           2.291e-16   1.059e-16   -15.640   -15.975    -0.335     (0)  
   CdI4-2          1.932e-19   8.932e-20   -18.714   -19.049    -0.335     (0)  
   PbI4-2          2.903e-21   1.342e-21   -20.537   -20.872    -0.335     (0)  
   HfI+3           4.830e-25   8.514e-26   -24.316   -25.070    -0.754     (0)  
   PuI+3           3.248e-26   5.727e-27   -25.488   -26.242    -0.754     (0)  
   I3-             1.131e-26   9.327e-27   -25.947   -26.030    -0.084     (0)  
   IO-             6.263e-28   5.164e-28   -27.203   -27.287    -0.084     (0)  
   NpI+3           1.230e-28   2.169e-29   -27.910   -28.664    -0.754     (0)  
   ICl2-           5.721e-31   4.717e-31   -30.243   -30.326    -0.084     (0)  
   SnI+            9.226e-38   7.608e-38   -37.035   -37.119    -0.084     (0)  
   UI+3            8.141e-39   1.435e-39   -38.089   -38.843    -0.754     (0)  
   SnI2            0.000e+00   0.000e+00   -41.455   -41.455     0.000     (0)  
   UO2IO3+         0.000e+00   0.000e+00   -56.611   -56.694    -0.084     (0)  
   IO4-            0.000e+00   0.000e+00   -82.184   -82.268    -0.084     (0)  
   UO2(IO3)2       0.000e+00   0.000e+00  -105.962  -105.962     0.000     (0)  
I(5)          0.000e+00
   IO3-            0.000e+00   0.000e+00   -50.764   -50.847    -0.084     (0)  
   Mn(IO3)+        0.000e+00   0.000e+00   -53.356   -53.440    -0.084     (0)  
   Mg(IO3)+        0.000e+00   0.000e+00   -53.406   -53.490    -0.084     (0)  
   Ca(IO3)+        0.000e+00   0.000e+00   -53.720   -53.804    -0.084     (0)  
   Sr(IO3)+        0.000e+00   0.000e+00   -53.777   -53.861    -0.084     (0)  
   Na(IO3)         0.000e+00   0.000e+00   -53.871   -53.871     0.000     (0)  
   K(IO3)          0.000e+00   0.000e+00   -53.911   -53.911     0.000     (0)  
   Al(IO3)+2       0.000e+00   0.000e+00   -56.579   -56.914    -0.335     (0)  
   Mn(IO3)2        0.000e+00   0.000e+00  -104.998  -104.998     0.000     (0)  
   Sr(IO3)2        0.000e+00   0.000e+00  -105.589  -105.589     0.000     (0)  
   Al(IO3)2+       0.000e+00   0.000e+00  -105.838  -105.922    -0.084     (0)  
K             1.000e-03
   K+              1.000e-03   8.246e-04    -3.000    -3.084    -0.084     (0)  
   KAl(OH)4        1.474e-08   1.474e-08    -7.832    -7.832     0.000     (0)  
   K(HPO4)-        2.322e-09   1.915e-09    -8.634    -8.718    -0.084     (0)  
   KH2PO4          1.325e-09   1.325e-09    -8.878    -8.878     0.000     (0)  
   KI              1.147e-10   1.147e-10    -9.941    -9.941     0.000     (0)  
   KPO4-2          5.717e-14   2.643e-14   -13.243   -13.578    -0.335     (0)  
   K(IO3)          0.000e+00   0.000e+00   -53.911   -53.911     0.000     (0)  
Li            1.000e-03
   Li+             1.000e-03   8.248e-04    -3.000    -3.084    -0.084     (0)  
Mg            1.000e-03
   Mg+2            9.819e-04   4.541e-04    -3.008    -3.343    -0.335     (0)  
   Mg(SO4)         1.605e-05   1.605e-05    -4.795    -4.795     0.000     (0)  
   MgCl+           9.357e-07   7.716e-07    -6.029    -6.113    -0.084     (0)  
   MgF+            7.268e-07   5.994e-07    -6.139    -6.222    -0.084     (0)  
   MgBr+           1.920e-07   1.583e-07    -6.717    -6.801    -0.084     (0)  
   Mg(HPO4)        1.328e-07   1.328e-07    -6.877    -6.877     0.000     (0)  
   Mg(HCO3)+       7.512e-08   6.194e-08    -7.124    -7.208    -0.084     (0)  
   Mg(OH)+         1.150e-08   9.482e-09    -7.939    -8.023    -0.084     (0)  
   MgB(OH)4+       1.146e-08   9.451e-09    -7.941    -8.025    -0.084     (0)  
   Mg(H2PO4)+      4.752e-09   3.919e-09    -8.323    -8.407    -0.084     (0)  
   MgI+            4.307e-09   3.552e-09    -8.366    -8.450    -0.084     (0)  
   Mg(CO3)         2.523e-09   2.523e-09    -8.598    -8.598     0.000     (0)  
   Mg(NH3)+2       1.551e-09   7.170e-10    -8.809    -9.145    -0.335     (0)  
   Mg(H3SiO4)+     5.187e-10   4.277e-10    -9.285    -9.369    -0.084     (0)  
   Mg(PO4)-        6.264e-11   5.166e-11   -10.203   -10.287    -0.084     (0)  
   MgI2            1.299e-14   1.299e-14   -13.886   -13.886     0.000     (0)  
   Mg(SeO4)        1.272e-19   1.272e-19   -18.895   -18.895     0.000     (0)  
   Mg(NH3)3+2      9.708e-22   4.488e-22   -21.013   -21.348    -0.335     (0)  
   Mg4(OH)4+4      1.651e-24   7.545e-26   -23.782   -25.122    -1.340     (0)  
   Mg(NH3)4+2      2.429e-28   1.123e-28   -27.615   -27.950    -0.335     (0)  
   Mg(IO3)+        0.000e+00   0.000e+00   -53.406   -53.490    -0.084     (0)  
   Mg(S2O3)        0.000e+00   0.000e+00   -72.325   -72.325     0.000     (0)  
Mn            1.000e-03
   Mn+2            7.982e-04   3.692e-04    -3.098    -3.433    -0.335     (0)  
   MnF2            1.771e-04   1.771e-04    -3.752    -3.752     0.000     (0)  
   Mn(SO4)         1.366e-05   1.366e-05    -4.864    -4.864     0.000     (0)  
[...]
  Na(NO3)(s)      -25.08    -23.99    1.09  Na(NO3)
  Na(TcO4):4H2O(s)  -6.96     -6.17    0.79  Na(TcO4):4H2O
  Na2(CO3)(cr)    -15.52    -14.40    1.12  Na2(CO3)
  Na2B4O7(cr)     -29.23    -45.29  -16.06  Na2B4O7
  Na2B4O7:10H2O(s) -20.71    -45.29  -24.58  Na2B4O7:10H2O
  Na2CO3:7H2O(s)  -13.94    -14.40   -0.46  Na2CO3:7H2O
  Na2HPO4(cr)     -14.64     -5.40    9.24  Na2HPO4
  Na2O(cr)        -59.63      7.83   67.46  Na2O
  Na2ZrSi2O7(cr)   -7.80     -4.06    3.74  Na2ZrSi2O7
  Na2ZrSi3O9:2H2O(cr) -24.08     -8.50   15.58  Na2ZrSi3O9:2H2O
  Na2ZrSi4O11(cr)   0.61    -12.95  -13.56  Na2ZrSi4O11
  Na2ZrSi6O15:3H2O(cr) -38.30    -21.84   16.46  Na2ZrSi6O15:3H2O
  Na2ZrSiO5(cr)   -12.80      0.39   13.19  Na2ZrSiO5
  Na3PO4(cr)      -25.01     -1.49   23.52  Na3PO4
  Na4Zr2Si3O12(cr) -19.18     -3.67   15.51  Na4Zr2Si3O12
  Na6Th(CO3)5:12H2O(cr) -33.07    -75.27  -42.20  Na6Th(CO3)5:12H2O
  NaAmO2CO3(s)    -26.92    -37.82  -10.90  NaAmO2CO3
  NaBO2(s)        -12.98     -9.36    3.62  NaBO2
  NaCm(CO3)2:5H2O(s)  -2.69    -23.69  -21.00  NaCm(CO3)2:5H2O
  NaEu(CO3)2:5H2O(s)  -2.77    -23.67  -20.90  NaEu(CO3)2:5H2O
  NaF(s)           -7.28     -7.76   -0.48  NaF
  NaH2PO4(cr)     -11.62     -9.32    2.30  NaH2PO4
  Nahcolite        -7.58    -18.32  -10.74  Na(HCO3)
  NaHo(CO3)2:5H2O(s)  -3.28    -23.78  -20.50  NaHo(CO3)2:5H2O
  NaNbO3(s)        -2.52     -6.18   -3.66  NaNbO3
  NaSm(CO3)2:5H2O(s)  -2.65    -23.64  -20.99  NaSm(CO3)2:5H2O
  Natrolite         0.11     19.44   19.33  Na2(Al2Si3)O10:2H2O
  Natron          -13.58    -14.41   -0.83  Na2(CO3):10H2O
  Nb(cr)         -106.92     42.38  149.30  Nb
  Nb2O5(s)          8.19    -20.19  -28.38  Nb2O5
  Nesquehonite     -6.48    -11.58   -5.10  Mg(CO3):3H2O
  Ni(BO2)2(s)      -7.25    -15.95   -8.70  Ni(BO2)2
  Ni(CO3):5.5H2O(cr)  -4.10    -11.62   -7.52  Ni(CO3):5.5H2O
  Ni(IO3)2(beta) -100.65   -105.08   -4.43  Ni(IO3)2
  Ni(IO3)2:2H2O(cr) -99.94   -105.08   -5.14  Ni(IO3)2:2H2O
  Ni(OH)2(s)       -0.42     10.61   11.03  Ni(OH)2
  Ni(s)           -19.41     31.60   51.01  Ni
  Ni(SeO3):2H2O(cr)  -9.30    -15.10   -5.80  Ni(SeO3):2H2O
  Ni(SeO4):6H2O(s) -19.76    -21.14   -1.38  Ni(SeO4):6H2O
  Ni(SO4)(cr)     -11.82     -7.07    4.75  Ni(SO4)
  Ni(SO4):6H2O(s)  -4.82     -7.07   -2.25  Ni(SO4):6H2O
  Ni(SO4):7H2O(s)  -4.80     -7.07   -2.27  Ni(SO4):7H2O
  Ni0.88Se(cr)    -13.44    -31.36  -17.92  Ni0.88Se
  Ni11As8(cr)    -340.50    534.27  874.76  Ni11As8
  Ni3(AsO3)2(s)   -18.97     15.53   34.50  Ni3(AsO3)2
  Ni3(AsO4)2:8H2O(s)   1.64    -26.46  -28.10  Ni3(AsO4)2:8H2O
  Ni3(PO4)2(cr)    -4.88      5.37   10.25  Ni3(PO4)2
  Ni5As2(cr)     -118.50    204.67  323.17  Ni5As2
  NiAs(cr)        -39.29     54.93   94.22  NiAs
  NiBr2(s)        -20.19    -10.02   10.17  NiBr2
  NiCl2(s)        -18.30     -9.63    8.67  NiCl2
  NiCl2:2H2O(s)   -14.55     -9.63    4.92  NiCl2:2H2O
  NiCl2:4H2O(s)   -13.45     -9.63    3.82  NiCl2:4H2O
  NiCl2:6H2O(s)   -12.67     -9.63    3.04  NiCl2:6H2O
  NiF2(s)         -12.57    -12.75   -0.18  NiF2
  NiI2(s)         -23.57    -13.96    9.61  NiI2
  NiSe2(cr)       -16.85    -86.74  -69.89  NiSe2
  Nontronite-Ca    10.44      7.61   -2.83  Ca0.17Fe1.67Al0.67Si3.66O10(OH)2
  Nontronite-K     11.13      7.13   -4.00  K0.34Fe1.67Al0.67Si3.66O10(OH)2
  Nontronite-Mg    10.98      7.61   -3.37  Mg0.17Fe1.67Al0.67Si3.66O10(OH)2
  Nontronite-Na    10.63      7.13   -3.50  Na0.34Fe1.67Al0.67Si3.66O10(OH)2
  Nontronite_Nau-2  10.77     12.12    1.35  Ca0.247K0.02(Si3.458Al0.542)(Fe1.688Al0.276Mg0.068)O10(OH)2
  Np(CO3)(OH)(s)  -20.35    -26.41   -6.06  Np(CO3)(OH)
  Np(cr)         -127.03     27.31  154.33  Np
  Np(HPO4)2(s)     -7.29    -23.35  -16.06  Np(HPO4)2
  Np(OH)3(s)      -22.18     -4.18   18.00  Np(OH)3
  Np2O5(cr)         4.12      7.82    3.70  Np2O5
  NpO2(CO3)(s)    -12.31    -26.91  -14.60  NpO2(CO3)
  NpO2(CO3)2Na3(s) -14.59    -28.81  -14.22  NpO2(CO3)2Na3
  NpO2(CO3)Na:3.5H2O(s)  -3.41    -14.41  -11.00  NpO2(CO3)Na:3.5H2O
  NpO2(NH4)4(CO3)3(s) -68.18    -94.99  -26.81  NpO2(NH4)4(CO3)3
  NpO2(s)          12.87      3.12   -9.75  NpO2
  NpO2:2H2O(am)     3.82      3.12   -0.70  NpO2:2H2O
  NpO2OH(am,aged)  -0.79      3.91    4.70  NpO2OH
  NpO2OH(am,fresh)  -1.39      3.91    5.30  NpO2OH
  NpO3:H2O(cr)    -10.15     -4.68    5.47  NpO3:H2O
  O2(g)           -39.08    -41.98   -2.90  O2
  Okenite          -7.43      1.75    9.18  CaSi2O5:2H2O
  Orpiment       -190.80   -232.28  -41.48  As2S3
  P(cr)          -101.27     39.24  140.51  P
  Pa(cr)         -154.32     30.41  184.73  Pa
  Pa2O5(s)         11.31      7.31   -4.00  Pa2O5
  PaO2(s)         -12.17    -11.57    0.60  PaO2
  Paragonite       11.20     28.00   16.80  NaAl3Si3O10(OH)2
  Paralaurionite   -0.22      0.40    0.62  PbCl(OH)
  Pb(cr)          -15.73     31.51   47.24  Pb
  Pb(H2PO4)2(cr)   -6.10    -15.94   -9.84  Pb(H2PO4)2
  Pb(HPO4)(s)       1.54     -2.71   -4.25  Pb(HPO4)
  Pb(OH)2(s)       -2.99     10.52   13.51  Pb(OH)2
  Pb(SeO3)(s)      -2.69    -15.19  -12.50  Pb(SeO3)
  Pb(SeO4)(s)     -14.33    -21.23   -6.90  Pb(SeO4)
  Pb2(SiO4)(s)      0.71     16.60   15.89  Pb2(SiO4)
  Pb3(AsO4)2(s)     8.68    -26.72  -35.40  Pb3(AsO4)2
  Pb3(PO4)2(s)     10.37      5.11   -5.26  Pb3(PO4)2
  Pb4O(PO4)2(cr)   13.39     15.63    2.24  Pb4O(PO4)2
  PbB2O4(s)        -5.17    -16.04  -10.87  PbB2O4
  PbF2(s)          -5.31    -12.83   -7.52  PbF2
  PbI2(cr)         -6.00    -14.05   -8.05  PbI2
  PbMoO4(s)         8.99     -6.81  -15.80  PbMoO4
  PbSiO3(Glass)    -0.52      6.08    6.60  PbSiO3
  Pd(cr)           11.73     21.69    9.96  Pd
  Pd(OH)2(s)        2.31      0.70   -1.61  Pd(OH)2
  PdBr2(cr)        -6.63    -19.94  -13.31  PdBr2
  PdCl2(cr)       -10.34    -19.54   -9.20  PdCl2
  PdI2(cr)          2.00    -23.87  -25.87  PdI2
  PdO(s)            6.72      0.70   -6.02  PdO
  PdS(s)          -24.43    -71.29  -46.86  PdS
  PdSe(s)          11.63    -37.48  -49.11  PdSe
  Pentahydrite     -5.75     -7.03   -1.28  MgSO4:5H2O
  Periclase       -10.92     10.66   21.58  MgO
  Phillipsite_Ca    2.14      4.46    2.32  Ca0.5AlSi3O8:3H2O
  Phillipsite_K     3.01      3.05    0.04  KAlSi3O8:3H2O
  Phillipsite_Na    1.60      3.05    1.45  NaAlSi3O8:3H2O
  Phlogopite_K     -6.08     35.02   41.10  KMg3Si3AlO10(OH)2
  Phlogopite_Na    -9.18     35.02   44.20  NaMg3AlSi3O10(OH)2
  Phosgenite      -41.32    -21.42   19.90  Pb2(CO3)Cl2
  Picromerite     -12.55    -16.88   -4.33  K2Mg(SO4)2:6H2O
  Pirssonite      -17.09    -26.00   -8.91  Na2Ca(CO3)2:2H2O
  Plattnerite     -17.08    -10.47    6.61  PbO2
  Plumbogummite     8.23     21.47   13.24  PbAl3(PO4)2(OH)5:H2O
  Plumbonacrite    13.93    -28.16  -42.09  Pb10(CO3)6O(OH)6
  Polydymite     -194.86   -277.12  -82.26  Ni3S4
  Polyhalite      -17.21    -30.95  -13.74  K2MgCa2(SO4)4:2H2O
  Portlandite     -12.17     10.64   22.81  Ca(OH)2
  Pu(CO3)(OH)(s)   -4.38    -10.12   -5.74  Pu(CO3)(OH)
  Pu(cr)         -122.32     43.60  165.91  Pu
  Pu(HPO4)2(am,hyd)  -5.01    -21.04  -16.03  Pu(HPO4)2
  Pu(OH)3(cr)      -3.69     12.11   15.80  Pu(OH)3
  Pu(OH)4(am)       6.22      5.42   -0.80  Pu(OH)4
  Pu(PO4)(s,hyd)    3.92     -1.12   -5.04  Pu(PO4)
  Pu2O3(s)        -26.40     24.23   50.63  Pu2O3
  PuAs(s)        -111.55     80.45  192.00  PuAs
  PuF4(s)         -15.22    -41.29  -26.07  PuF4
  PuO2(CO3)(s)    -13.43    -28.08  -14.65  PuO2(CO3)
  PuO2(coll,hyd)    5.22      5.42    0.20  PuO2
  PuO2(OH)(s)      -6.03     -1.03    5.00  PuO2(OH)
  PuO2(OH)2:H2O(s) -11.35     -5.85    5.50  PuO2(OH)2:H2O
  PuO2(s)          13.45      5.42   -8.03  PuO2
  PuO2:2H2O(am)     7.79      5.42   -2.37  PuO2:2H2O
  Pyrite          -95.97   -154.75  -58.78  FeS2
  Pyrochroite      -4.73     10.57   15.30  Mn(OH)2
  Pyromorphite     28.55      2.80  -25.75  Pb5Cl(PO4)3
  Pyromorphite-Br  22.05      2.60  -19.45  Pb5Br(PO4)3
  Pyromorphite-F   14.34      1.24  -13.10  Pb5F(PO4)3
  Pyromorphite-OH  17.07     12.92   -4.15  Pb5(OH)(PO4)3
  Pyrophyllite      7.58      7.16   -0.42  Al2Si4O10(OH)2
  Pyrrhotite      -54.65    -65.83  -11.18  Fe0.87S
  Quartz           -0.71     -4.45   -3.74  SiO2
  Ra(CO3)(s)       -3.29    -11.59   -8.30  Ra(CO3)
  Ra(cr)         -109.80     31.63  141.43  Ra
  Ra(NO3)2(s)     -42.95    -45.16   -2.21  Ra(NO3)2
  Ra(OH)2(s)      -20.35     10.64   30.99  Ra(OH)2
  Ra(SO4)(s)        3.22     -7.04  -10.26  Ra(SO4)
  RaCl2:2H2O(s)    -8.87     -9.60   -0.73  RaCl2:2H2O
  Rb(s)           -56.84     14.41   71.25  Rb
  Rb2MoO4(s)      -12.60     -9.50    3.10  Rb2MoO4
  Realgar         -67.08    -69.65   -2.58  AsS
  Rhodochrosite    -0.54    -11.67  -11.13  Mn(CO3)
  Rhodochrosite(syn)  -1.15    -11.67  -10.52  Mn(CO3)
  Ripidolite_Cca-2   8.88     70.23   61.35  (Mg2.964Fe1.712Fe0.215Al1.116Ca0.011)(Si2.633Al1.367)O10(OH)8
  Romarchite      -21.16    -19.57    1.59  SnO
  Rutherfordine    -1.32    -16.08  -14.76  (UO2)(CO3)
  S(cr)           -47.85    -92.98  -45.13  S
  Sacchite        -18.44     -9.67    8.77  MnCl2
  Sanidine          2.47      3.05    0.58  KAlSi3O8
  Saponite-Ca      -7.59     21.75   29.34  Ca0.17Mg3Al0.34Si3.66O10(OH)2
  Saponite-FeCa    -5.24     21.31   26.55  Ca0.17Mg2FeAl0.34Si3.66O10(OH)2
  Saponite-FeK     -4.54     20.84   25.38  K0.34Mg2FeAl0.34Si3.66O10(OH)2
  Saponite-FeMg    -4.68     21.32   26.00  Mg0.17Mg2FeAl0.34Si3.66O10(OH)2
  Saponite-FeNa    -4.86     20.84   25.70  Na0.34Mg2FeAl0.34Si3.66O10(OH)2
  Saponite-K       -6.90     21.27   28.17  K0.34Mg3Al0.34Si3.66O10(OH)2
  Saponite-Mg      -7.04     21.75   28.79  Mg0.17Mg3Al0.34Si3.66O10(OH)2
  Saponite-Na      -7.40     21.27   28.67  Na0.34Mg3Al0.34Si3.66O10(OH)2
  Saponite_SapCa   -8.43     23.04   31.47  (Na0.394K0.021Ca0.038)(Si3.569Al0.397)(Mg2.949Fe0.034Fe0.021)O10(OH)2
  Saponite_SapCa(4.151H2O)  -5.27     23.03   28.30  (Na0.394K0.021Ca0.038)(Si3.569Al0.397)(Mg2.949Fe0.034Fe0.021)O10(OH)2:4.151H2O
  Sb(cr)          -28.95     23.86   52.81  Sb
  Sb2O5(s)         -7.33    -14.73   -7.40  Sb2O5
  Schoepite         0.19      6.15    5.96  UO3:2H2O
  Schoepite(des)    1.15      6.15    5.00  UO3:0.9H2O
  Scolecite         5.60     22.25   16.65  CaAl2Si3O10:3H2O
  Se(s)            -8.56    -59.17  -50.61  Se
  Se3U(cr)        -90.12   -108.39  -18.27  Se3U
  SeO3(cr)        -52.11    -31.75   20.36  SeO3
  SeU(cr)        -104.33    -24.00   80.33  SeU
  Si(cr)         -111.63     37.53  149.17  Si
  Siderite         -1.21    -12.01  -10.80  Fe(CO3)
  Siderophyllite   12.32     52.89   40.57  KFe2Al3Si2O10(OH)2
  SiO2(am)         -1.74     -4.45   -2.71  SiO2
  Sm(cr)         -132.70     48.40  181.11  Sm
  Sm(OH)3(am)      -0.93     16.92   17.85  Sm(OH)3
  Sm(OH)3(s)        0.79     16.92   16.13  Sm(OH)3
  Sm2(CO3)3(s)      1.63    -32.87  -34.50  Sm2(CO3)3
  Sm2(SO4)3(s)     -9.41    -19.21   -9.80  Sm2(SO4)3
  Sm2O3(s)         -9.27     33.84   43.11  Sm2O3
  SmCl3:6H2O(s)   -18.24    -13.44    4.80  SmCl3:6H2O
  Smectite_MX80(3.989H2O)  10.65     12.43    1.78  (Ca0.009Na0.409K0.024)(Si3.738Al0.262)(Al1.598Fe0.173Fe0.035Mg0.214)O10(OH)2:3.989H2O
  Smectite_MX80(5.189H2O)  10.99     12.43    1.44  (Ca0.009Na0.409K0.024)(Si3.738Al0.262)(Al1.598Fe0.173Fe0.035Mg0.214)O10(OH)2:5.189H2O
  SmectiteMX80      7.16     12.43    5.27  Na0.409K0.024Ca0.009(Si3.738Al0.262)(Al1.598Mg0.214Fe0.173Fe0.035)O10(OH)2
  SmF3:0.5H2O(s)   -0.62    -18.12  -17.50  SmF3:0.5H2O
  SmOHCO3(cr)       4.91     -5.32  -10.23  SmOHCO3
  SmOHCO3:0.5H2O(cr)   1.99     -5.32   -7.31  SmOHCO3:0.5H2O
  SmPO4:H2O(am)     8.69      3.69   -5.00  SmPO4:H2O
  SmPO4:H2O(cr)    10.36      3.69   -6.67  SmPO4:H2O
  Sn(cr)(alfa)    -46.39      1.42   47.81  Sn
  Sn(cr)(beta)    -46.37      1.42   47.79  Sn
  Sn(OH)4(s)       -9.27    -10.55   -1.28  Sn(OH)4
  Sn(OH)Cl(s)     -27.27    -29.69   -2.42  Sn(OH)Cl
  SnO2(am)          4.22    -10.55  -14.77  SnO2
  SnSe(alfa)      -36.08    -57.75  -21.67  SnSe
  SnSe2(s)        -43.15   -116.93  -73.78  SnSe2
  SO2(g)          -34.36    -43.30   -8.94  SO2
  Soddyite(synt1)   3.96      7.86    3.90  (UO2)2SiO4:2H2O
  Soddyite(synt2)   1.43      7.86    6.43  (UO2)2SiO4:2H2O
  Sodium-compreignacite   5.35     44.75   39.40  Na2(UO2)6O4(OH)6:7H2O
  Sphaerocobaltite  -0.38    -11.58  -11.20  CoCO3
  Sr(cr)         -110.13     31.65  141.78  Sr
  Sr(HPO4)(s)      -2.86     -2.58    0.28  Sr(HPO4)
  Sr(NO3)2(cr)    -45.55    -45.15    0.40  Sr(NO3)2
  Sr(NO3)2:2H2O(s) -45.20    -45.15    0.05  Sr(NO3)2:2H2O
  Sr(NO3)2:4H2O(s) -44.28    -45.15   -0.87  Sr(NO3)2:4H2O
  Sr(OH)2(s)      -16.85     10.66   27.51  Sr(OH)2
  Sr(OH)2:8H2O(s) -13.67     10.65   24.32  Sr(OH)2:8H2O
  Sr(SeO3)(cr)     -8.76    -15.06   -6.30  Sr(SeO3)
  Sr(SeO4)(s)     -16.75    -21.10   -4.35  Sr(SeO4)
  Sr2SiO4(s)      -26.38     16.87   43.25  Sr2SiO4
  Sr3(AsO4)2(s)   -10.24    -26.32  -16.08  Sr3(AsO4)2
  Sr3(PO4)2(s)     -5.03      5.50   10.53  Sr3(PO4)2
  Sr5(PO4)3(OH)(s)   6.41     13.58    7.17  Sr5(PO4)3(OH)
  SrBr2(s)        -22.48     -9.98   12.50  SrBr2
  SrBr2:6H2O(s)   -12.80     -9.98    2.82  SrBr2:6H2O
  SrBr2:H2O(s)    -18.78     -9.98    8.80  SrBr2:H2O
  SrCl2(s)        -17.70     -9.58    8.12  SrCl2
  SrCl2:2H2O(s)   -13.05     -9.58    3.47  SrCl2:2H2O
  SrCl2:6H2O(s)   -11.19     -9.58    1.61  SrCl2:6H2O
  SrCl2:H2O(s)    -14.49     -9.58    4.91  SrCl2:H2O
  SrCrO4(s)       -13.99    -18.64   -4.65  SrCrO4
  SrF2(cr)         -4.16    -12.70   -8.54  SrF2
  SrMoO4(s)        -0.09     -6.68   -6.59  SrMoO4
  SrO(cr)         -31.32     10.66   41.98  SrO
  SrS(s)          -76.01    -61.33   14.68  SrS
  SrSiO3(s)        -6.95      6.21   13.16  SrSiO3
  SrZrSi2O7(cr)    -6.43     -1.23    5.20  SrZrSi2O7
  Stellerite        1.95      8.94    6.99  Ca2Al4Si14O36:14H2O
  Stibnite       -175.19   -231.22  -56.03  Sb2S3
  Stilbite          6.72     29.77   23.05  NaCa2(Al5Si13)O36:16H2O
  Stilleite       -15.47    -27.52  -12.05  ZnSe
  Stratlingite     -7.88     41.78   49.66  Ca2Al2SiO3(OH)8:4H2O
  Strontianite     -2.31    -11.58   -9.27  Sr(CO3)
  Sudoite          19.91     57.87   37.96  Mg2Al4Si3O10(OH)8
  Sylvite          -7.07     -6.20    0.87  KCl
  Syngenite        -9.44    -16.89   -7.45  K2Ca(SO4)2:6H2O
  Tachyhydrite    -46.14    -28.76   17.38  Mg2CaCl6:12H2O
  Talc            -10.75     14.19   24.94  Mg3Si4O10(OH)2
  Tc(cr)          -32.57     28.33   60.90  Tc
  Tc2O7(s)        -35.48    -20.17   15.31  Tc2O7
  Tc2O7:H2O(s)    -34.27    -20.17   14.10  Tc2O7:H2O
  TcO2(cr)         -4.51    -13.65   -9.14  TcO2
  TcO2:1.63H2O(s)  -5.25    -13.65   -8.40  TcO2:1.63H2O
  Th(cr)         -155.06     54.39  209.45  Th
  Th(HPO4)2(s)      2.06    -14.05  -16.11  Th(HPO4)2
  Th(SO4)2:9H2O(cr) -11.70    -22.95  -11.25  Th(SO4)2:9H2O
  Thermonatrite   -14.88    -14.40    0.48  Na2(CO3):H2O
  Thernardite      -9.49     -9.85   -0.36  Na2SO4
  ThF4(cr)        -15.19    -34.30  -19.11  ThF4
  ThO2(aged)        3.91     12.41    8.50  ThO2
  ThO2(coll)        1.31     12.41   11.10  ThO2
  ThO2(cr)         10.64     12.41    1.77  ThO2
  ThO2(fresh)       3.11     12.41    9.30  ThO2
  ThO2(mcr)         9.41     12.41    3.00  ThO2
  Tiemannite        4.84    -40.59  -45.43  HgSe
  Tobermorite-11A -39.04     26.54   65.58  Ca5Si6O16.5(OH):5H2O
  Tobermorite-14A -36.40     26.54   62.94  Ca5Si6O16.5(OH):10H2O
  Trevorite        17.63     27.03    9.40  Fe2NiO4
  Troilite        -56.46    -61.77   -5.31  FeS
  Trona           -21.34    -32.72  -11.38  Na3H(CO3)2:2H2O
  Truscottite     -55.93     21.15   77.08  Ca7Si12O29(OH)4:H2O
  U(cr)          -143.64     35.17  178.81  U
  U(HPO4)2:4H2O(s) -17.21    -33.28  -16.07  U(HPO4)2:4H2O
  U(OH)2(SO4)(cr) -21.32    -24.49   -3.17  U(OH)2(SO4)
  U(SO4)2(cr)     -30.49    -42.17  -11.68  U(SO4)2
  U(SO4)2:4H2O(cr) -30.45    -42.17  -11.72  U(SO4)2:4H2O
  U(SO4)2:8H2O(cr) -29.40    -42.17  -12.77  U(SO4)2:8H2O
  U2O7Ba(cr)        1.56     22.95   21.39  U2O7Ba
  U2O7Ba2(cr)     -20.80     14.55   35.35  U2O7Ba2
  U2O7Na2(s)       -2.46     20.14   22.60  U2O7Na2
  U3As4(s)       -429.95    300.69  730.64  U3As4
  UAs(s)         -133.48     92.45  225.94  UAs
  UAs2(s)        -162.42    115.78  278.20  UAs2
  UO2(CO3)3Mg2:18H2O(s) -10.23    -39.24  -29.01  UO2(CO3)3Mg2:18H2O
  UO2(CO3)3Na4(cr) -17.71    -44.89  -27.18  UO2(CO3)3Na4
  UO2(HPO4):4H2O(cr)  -2.44     -7.08   -4.64  UO2(HPO4):4H2O
  UO2(OH)2(beta)    1.22      6.15    4.93  UO2(OH)2
  UO2(SO3)(cr)    -21.32    -37.15  -15.83  UO2(SO3)
  UO2(SO4)(cr)    -13.42    -11.53    1.89  UO2(SO4)
  UO2(SO4):2.5H2O(cr)  -9.94    -11.53   -1.59  UO2(SO4):2.5H2O
  UO2(SO4):3.5H2O(cr)  -9.94    -11.53   -1.59  UO2(SO4):3.5H2O
  UO2(SO4):3H2O(cr) -10.03    -11.53   -1.50  UO2(SO4):3H2O
  UO2.25(s)        -0.31    -12.05  -11.75  UO2.25
  UO2.34(beta)      0.04    -13.94  -13.99  UO2.34
  UO2.67(s)         1.08    -20.87  -21.95  UO2.67
  UO2:2H2O(am)     -8.31     -6.81    1.50  UO2:2H2O
  UO3(alfa)        -3.37      6.15    9.52  UO3
  UO3(beta)        -2.15      6.15    8.30  UO3
  UO3Na(s)         -7.79      0.55    8.34  UO3Na
  UO4Ba(s)         -0.84     16.80   17.64  UO4Ba
  UO4Ca(cr)         0.87     16.80   15.93  UO4Ca
  UO4Li2(s)       -13.95     13.99   27.94  UO4Li2
  UO4Mg(cr)        -6.42     16.81   23.23  UO4Mg
  UO4Na2(alfa)    -16.04     13.99   30.03  UO4Na2
  UO4Na3(cr)      -47.90      8.38   56.28  UO4Na3
  UO4Sr(alfa)      -2.35     16.81   19.16  UO4Sr
  UO6Ba3(cr)      -54.61     38.09   92.70  UO6Ba3
  Uraninite        -1.96     -6.81   -4.85  UO2
  Uranophane        4.64     14.06    9.42  Ca(UO2)2(SiO3OH)2:5H2O
  US2(cr)        -148.36   -150.79   -2.43  US2
  USe2(beta)      -85.99    -83.17    2.82  USe2
  Vaesite         -93.40   -154.36  -60.96  NiS2
  Valentinite      -6.77    -15.25   -8.48  Sb2O3
  Vaterite         -3.69    -11.59   -7.90  CaCO3
  Vermiculite-Ca   -6.24     33.31   39.55  Ca0.43Mg3Si3.14Al0.86O10(OH)2
  Vermiculite-K    -5.33     32.11   37.44  K0.86Mg3.00Si3.14Al0.86O10(OH)2
  Vermiculite-Mg   -4.72     33.32   38.04  Mg0.43Mg3Si3.14Al0.86O10(OH)2
  Vermiculite-Na   -6.28     32.11   38.39  Na0.86Mg3.00Si3.14Al0.86O10(OH)2
  Vermiculite_SO   -7.07     38.84   45.91  (Ca0.445)(Si2.778Al1.222)(Al0.216Fe0.226Fe0.028Mg2.475)O10(OH)2
  Vivianite         1.07      4.19    3.12  Fe3(PO4)2:8H2O
  Wairakite         3.37     17.81   14.44  CaAl2Si4O12:2H2O
  Witherite        -3.03    -11.59   -8.56  Ba(CO3)
  Xonotlite       -54.16     37.18   91.34  Ca6Si6O17(OH)2
  Zeolite_CaP       8.24     53.39   45.15  Ca2Al4Si4O16:9H2O
  Zn(SeO4):6H2O(s) -19.55    -21.09   -1.54  Zn(SeO4):6H2O
  Zn3(AsO4)2(s)     1.15    -26.30  -27.45  Zn3(AsO4)2
  ZnB2O4(s)        -5.71    -15.90  -10.19  ZnB2O4
  Zr(cr)         -139.59     38.98  178.57  Zr
  Zr(HPO4)2(alfa)   2.80    -29.47  -32.27  Zr(HPO4)2
  Zr(HPO4)2:H2O(cr)  -2.39    -29.47  -27.08  Zr(HPO4)2:H2O
  Zr(OH)4(am,aged)   2.55     -3.00   -5.55  Zr(OH)4
  Zr(OH)4(am,fresh)   0.24     -3.00   -3.24  Zr(OH)4
  Zr(SO4)2(cr)    -39.60    -38.36    1.24  Zr(SO4)2
  Zr(SO4)2:4H2O(s) -30.71    -38.36   -7.65  Zr(SO4)2:4H2O
  ZrBr4(cr)       -82.79    -44.27   38.52  ZrBr4
  ZrCl(s)        -115.36     18.37  133.72  ZrCl
  ZrCl2(s)        -96.89     -2.25   94.64  ZrCl2
  ZrCl3(s)        -85.08    -22.86   62.22  ZrCl3
  ZrCl4(s)        -72.08    -43.48   28.60  ZrCl4
  ZrF2(s)         -80.97     -5.37   75.60  ZrF2
  ZrF3(s)         -51.84    -27.54   24.29  ZrF3
  ZrF4(beta)      -22.47    -49.72  -27.25  ZrF4
  ZrI4(cr)        -96.73    -52.14   44.59  ZrI4
  ZrO2(cr)          4.00     -3.00   -7.00  ZrO2
  ZrSiO4(s)         6.92     -7.44  -14.36  ZrSiO4

**For a gas, SI = log10(fugacity). Fugacity = pressure * phi / 1 atm.
  For ideal gases, phi = 1.

------------------
End of simulation.
------------------

------------------------------------
Reading input data for simulation 2.
------------------------------------

--------------------------------
End of Run after 93.279 Seconds.
--------------------------------

