WARNING: Database file from DATABASE keyword is used; command line argument ignored.
   Input file: cumulativetime
  Output file: cumulativetime.out
Database file: ../database/phreeqc.dat

------------------
Reading data base.
------------------

	SOLUTION_MASTER_SPECIES
	SOLUTION_SPECIES
	PHASES
	EXCHANGE_MASTER_SPECIES
	EXCHANGE_SPECIES
	SURFACE_MASTER_SPECIES
	SURFACE_SPECIES
	RATES
	END
------------------------------------
Reading input data for simulation 1.
------------------------------------

	DATABASE ../database/phreeqc.dat
	SELECTED_OUTPUT 101
	    file                 cumulativetime_101.sel
	USER_PUNCH 101
	    headings Mu SC
	    start
	10 PUNCH STR_F$(MU, 20, 12)
	20 PUNCH STR_F$(SC, 20, 10)
	    end
	INCREMENTAL_REACTIONS false
	SOLUTION
		O(0) 1 O2(g) -0.7
	KINETICS 1
	Pyrite
	    formula  FeS2  1
	    m        1
	    m0       1
	    parms    2 0.67 0.5 -0.11
	    tol      1e-008
	steps       31500000 in 3 steps # seconds
	step_divide 1
	runge_kutta 3
	bad_step_max 500
	END
-------------------------------------------
Beginning of initial solution calculations.
-------------------------------------------

Initial solution 1.	

-----------------------------Solution composition------------------------------

	Elements           Molality       Moles

	O(0)              5.112e-04   5.112e-04  Equilibrium with O2(g)

----------------------------Description of solution----------------------------

                                       pH  =   7.000    
                                       pe  =   4.000    
       Specific Conductance (µS/cm, 25°C)  = 0
                          Density (g/cm³)  =   0.99704
                               Volume (L)  =   1.00297
                        Activity of water  =   1.000
                           Ionic strength  =   1.006e-07
                       Mass of water (kg)  =   1.000e+00
                 Total alkalinity (eq/kg)  =   1.216e-09
                    Total carbon (mol/kg)  =   0.000e+00
                       Total CO2 (mol/kg)  =   0.000e+00
                         Temperature (°C)  =  25.00
                  Electrical balance (eq)  =  -1.216e-09
 Percent error, 100*(Cat-|An|)/(Cat+|An|)  =  -0.60
                               Iterations  =   4
                                  Total H  = 1.110124e+02
                                  Total O  = 5.550673e+01

---------------------------------Redox couples---------------------------------

	Redox couple             pe  Eh (volts)

	O(-2)/O(0)          13.6219      0.8058

----------------------------Distribution of species----------------------------

                                               Log       Log       Log    mole V
   Species          Molality    Activity  Molality  Activity     Gamma   cm³/mol

   OH-             1.013e-07   1.012e-07    -6.995    -6.995    -0.000     -4.14
   H+              1.000e-07   1.000e-07    -7.000    -7.000    -0.000      0.00
   H2O             5.551e+01   1.000e+00     1.744    -0.000     0.000     18.07
H(0)          1.416e-25
   H2              7.079e-26   7.079e-26   -25.150   -25.150     0.000     28.61
O(0)          5.112e-04
   O2              2.556e-04   2.556e-04    -3.592    -3.592     0.000     30.40

------------------------------Saturation indices-------------------------------

  Phase               SI** log IAP   log K(298 K,   1 atm)

  H2(g)           -22.05    -25.15   -3.10  H2
  H2O(g)           -1.50     -0.00    1.50  H2O
  O2(g)            -0.70     -3.59   -2.89  O2	 Pressure   0.2 atm, phi 1.000

**For a gas, SI = log10(fugacity). Fugacity = pressure * phi / 1 atm.
  For ideal gases, phi = 1.

-----------------------------------------
Beginning of batch-reaction calculations.
-----------------------------------------

Reaction step 1.

WARNING: Negative moles in solution for Fe, -1.232761e-02. Recovering...
WARNING: Negative moles in solution for Fe, -8.629329e-04. Recovering...
WARNING: Negative moles in solution for Fe, -2.025296e-04. Recovering...
Using solution 1.	
Using kinetics 1.	

Kinetics 1.	

	Time step: 1.05e+07 seconds

	Rate name       Delta Moles Total Moles   Reactant        Coefficient

	Pyrite           -6.825e-05   9.999e-01   FeS2                      1

-----------------------------Solution composition------------------------------

	Elements           Molality       Moles

	Fe                6.825e-05   6.825e-05
	S                 1.365e-04   1.365e-04

----------------------------Description of solution----------------------------

                                       pH  =   3.767      Charge balance
                                       pe  =  12.695      Adjusted to redox equilibrium
       Specific Conductance (µS/cm, 25°C)  = 81
                          Density (g/cm³)  =   0.99706
                               Volume (L)  =   1.00297
                        Activity of water  =   1.000
                           Ionic strength  =   4.298e-04
                       Mass of water (kg)  =   1.000e+00
                 Total alkalinity (eq/kg)  =  -2.034e-04
                    Total carbon (mol/kg)  =   0.000e+00
                       Total CO2 (mol/kg)  =   0.000e+00
                         Temperature (°C)  =  25.00
                  Electrical balance (eq)  =  -1.216e-09
 Percent error, 100*(Cat-|An|)/(Cat+|An|)  =  -0.00
                               Iterations  = 692
                                  Total H  = 1.110124e+02
                                  Total O  = 5.550673e+01

----------------------------Distribution of species----------------------------

                                               Log       Log       Log    mole V
   Species          Molality    Activity  Molality  Activity     Gamma   cm³/mol

   H+              1.751e-04   1.711e-04    -3.757    -3.767    -0.010      0.00
   OH-             6.057e-11   5.915e-11   -10.218   -10.228    -0.010     -4.12
   H2O             5.551e+01   1.000e+00     1.744    -0.000     0.000     18.07
Fe(2)         1.332e-06
   Fe+2            1.306e-06   1.190e-06    -5.884    -5.925    -0.041    -22.17
   FeSO4           2.573e-08   2.573e-08    -7.590    -7.590     0.000     18.97
   FeHSO4+         2.963e-11   2.894e-11   -10.528   -10.539    -0.010     (0)  
   FeOH+           2.251e-12   2.199e-12   -11.648   -11.658    -0.010     (0)  
   Fe(OH)2         1.094e-19   1.094e-19   -18.961   -18.961     0.000     (0)  
   Fe(OH)3-        2.431e-26   2.375e-26   -25.614   -25.624    -0.010     (0)  
   Fe(HS)2         0.000e+00   0.000e+00  -208.422  -208.422     0.000     (0)  
   Fe(HS)3-        0.000e+00   0.000e+00  -312.098  -312.109    -0.010     (0)  
Fe(3)         6.692e-05
   Fe(OH)2+        4.206e-05   4.108e-05    -4.376    -4.386    -0.010     (0)  
   FeOH+2          2.333e-05   2.123e-05    -4.632    -4.673    -0.041     (0)  
   FeSO4+          7.682e-07   7.503e-07    -6.115    -6.125    -0.010     (0)  
   Fe+3            6.917e-07   5.627e-07    -6.160    -6.250    -0.090     (0)  
   Fe(OH)3         3.093e-08   3.093e-08    -7.510    -7.510     0.000     (0)  
   Fe2(OH)2+4      1.773e-08   1.213e-08    -7.751    -7.916    -0.165     (0)  
   Fe(SO4)2-       2.044e-09   1.996e-09    -8.690    -8.700    -0.010     (0)  
   FeHSO4+2        3.780e-10   3.438e-10    -9.423    -9.464    -0.041     (0)  
   Fe3(OH)4+5      1.883e-10   1.041e-10    -9.725    -9.982    -0.257     (0)  
   Fe(OH)4-        1.688e-13   1.649e-13   -12.773   -12.783    -0.010     (0)  
H(0)          1.690e-36
   H2              8.452e-37   8.453e-37   -36.073   -36.073     0.000     28.61
O(0)          1.167e-20
   O2              5.834e-21   5.835e-21   -20.234   -20.234     0.000     30.40
S(-2)         0.000e+00
   H2S             0.000e+00   0.000e+00  -102.549  -102.549     0.000     37.16
   HS-             0.000e+00   0.000e+00  -105.713  -105.724    -0.010     20.59
   S-2             0.000e+00   0.000e+00  -114.834  -114.875    -0.041     (0)  
   Fe(HS)2         0.000e+00   0.000e+00  -208.422  -208.422     0.000     (0)  
   Fe(HS)3-        0.000e+00   0.000e+00  -312.098  -312.109    -0.010     (0)  
S(6)          1.365e-04
   SO4-2           1.336e-04   1.216e-04    -3.874    -3.915    -0.041     14.47
   HSO4-           2.072e-06   2.023e-06    -5.684    -5.694    -0.010     40.27
   FeSO4+          7.682e-07   7.503e-07    -6.115    -6.125    -0.010     (0)  
   FeSO4           2.573e-08   2.573e-08    -7.590    -7.590     0.000     18.97
   Fe(SO4)2-       2.044e-09   1.996e-09    -8.690    -8.700    -0.010     (0)  
   FeHSO4+2        3.780e-10   3.438e-10    -9.423    -9.464    -0.041     (0)  
   FeHSO4+         2.963e-11   2.894e-11   -10.528   -10.539    -0.010     (0)  

------------------------------Saturation indices-------------------------------

  Phase               SI** log IAP   log K(298 K,   1 atm)

  Fe(OH)3(a)        0.16      5.05    4.89  Fe(OH)3
  FeS(ppt)       -103.97   -107.88   -3.92  FeS
  Goethite          6.05      5.05   -1.00  FeOOH
  H2(g)           -32.97    -36.07   -3.10  H2
  H2O(g)           -1.50     -0.00    1.50  H2O
  H2S(g)         -101.50   -109.49   -7.99  H2S
  Hematite         14.11     10.10   -4.01  Fe2O3
  Mackinawite    -103.23   -107.88   -4.65  FeS
  Melanterite      -7.63     -9.84   -2.21  FeSO4:7H2O
  O2(g)           -17.34    -20.23   -2.89  O2
  Pyrite         -165.97   -184.45  -18.48  FeS2
  Sulfur          -74.51    -69.63    4.88  S

**For a gas, SI = log10(fugacity). Fugacity = pressure * phi / 1 atm.
  For ideal gases, phi = 1.

Reaction step 2.

WARNING: Negative moles in solution for Fe, -1.322327e-02. Recovering...
WARNING: Negative moles in solution for Fe, -9.256286e-04. Recovering...
WARNING: Negative moles in solution for Fe, -2.585575e-04. Recovering...
Using solution 1.	
Using kinetics 1.	

Kinetics 1.	

	Time step: 2.1e+07 seconds

	Rate name       Delta Moles Total Moles   Reactant        Coefficient

	Pyrite           -6.824e-05   9.999e-01   FeS2                      1

-----------------------------Solution composition------------------------------

	Elements           Molality       Moles

	Fe                6.824e-05   6.824e-05
	S                 1.365e-04   1.365e-04

----------------------------Description of solution----------------------------

                                       pH  =   3.767      Charge balance
                                       pe  =  12.755      Adjusted to redox equilibrium
       Specific Conductance (µS/cm, 25°C)  = 81
                          Density (g/cm³)  =   0.99706
                               Volume (L)  =   1.00297
                        Activity of water  =   1.000
                           Ionic strength  =   4.296e-04
                       Mass of water (kg)  =   1.000e+00
                 Total alkalinity (eq/kg)  =  -2.035e-04
                    Total carbon (mol/kg)  =   0.000e+00
                       Total CO2 (mol/kg)  =   0.000e+00
                         Temperature (°C)  =  25.00
                  Electrical balance (eq)  =  -1.215e-09
 Percent error, 100*(Cat-|An|)/(Cat+|An|)  =  -0.00
                               Iterations  = 691
                                  Total H  = 1.110124e+02
                                  Total O  = 5.550673e+01

----------------------------Distribution of species----------------------------

                                               Log       Log       Log    mole V
   Species          Molality    Activity  Molality  Activity     Gamma   cm³/mol

   H+              1.751e-04   1.712e-04    -3.757    -3.767    -0.010      0.00
   OH-             6.055e-11   5.913e-11   -10.218   -10.228    -0.010     -4.12
   H2O             5.551e+01   1.000e+00     1.744    -0.000     0.000     18.07
Fe(2)         1.164e-06
   Fe+2            1.142e-06   1.040e-06    -5.942    -5.983    -0.041    -22.17
   FeSO4           2.248e-08   2.248e-08    -7.648    -7.648     0.000     18.97
   FeHSO4+         2.591e-11   2.530e-11   -10.587   -10.597    -0.010     (0)  
   FeOH+           1.967e-12   1.921e-12   -11.706   -11.716    -0.010     (0)  
   Fe(OH)2         9.550e-20   9.551e-20   -19.020   -19.020     0.000     (0)  
   Fe(OH)3-        2.122e-26   2.073e-26   -25.673   -25.683    -0.010     (0)  
   Fe(HS)2         0.000e+00   0.000e+00  -209.434  -209.434     0.000     (0)  
   Fe(HS)3-        0.000e+00   0.000e+00  -313.587  -313.598    -0.010     (0)  
Fe(3)         6.707e-05
   Fe(OH)2+        4.215e-05   4.117e-05    -4.375    -4.385    -0.010     (0)  
   FeOH+2          2.339e-05   2.129e-05    -4.631    -4.672    -0.041     (0)  
   FeSO4+          7.703e-07   7.524e-07    -6.113    -6.124    -0.010     (0)  
   Fe+3            6.937e-07   5.643e-07    -6.159    -6.248    -0.090     (0)  
   Fe(OH)3         3.098e-08   3.099e-08    -7.509    -7.509     0.000     (0)  
   Fe2(OH)2+4      1.782e-08   1.219e-08    -7.749    -7.914    -0.165     (0)  
   Fe(SO4)2-       2.050e-09   2.002e-09    -8.688    -8.699    -0.010     (0)  
   FeHSO4+2        3.792e-10   3.449e-10    -9.421    -9.462    -0.041     (0)  
   Fe3(OH)4+5      1.897e-10   1.049e-10    -9.722    -9.979    -0.257     (0)  
   Fe(OH)4-        1.690e-13   1.651e-13   -12.772   -12.782    -0.010     (0)  
H(0)          1.285e-36
   H2              6.423e-37   6.424e-37   -36.192   -36.192     0.000     28.61
O(0)          2.020e-20
   O2              1.010e-20   1.010e-20   -19.996   -19.996     0.000     30.40
S(-2)         0.000e+00
   H2S             0.000e+00   0.000e+00  -103.025  -103.025     0.000     37.16
   HS-             0.000e+00   0.000e+00  -106.190  -106.201    -0.010     20.59
   S-2             0.000e+00   0.000e+00  -115.311  -115.352    -0.041     (0)  
   Fe(HS)2         0.000e+00   0.000e+00  -209.434  -209.434     0.000     (0)  
   Fe(HS)3-        0.000e+00   0.000e+00  -313.587  -313.598    -0.010     (0)  
S(6)          1.365e-04
   SO4-2           1.336e-04   1.216e-04    -3.874    -3.915    -0.041     14.47
   HSO4-           2.072e-06   2.024e-06    -5.684    -5.694    -0.010     40.27
   FeSO4+          7.703e-07   7.524e-07    -6.113    -6.124    -0.010     (0)  
   FeSO4           2.248e-08   2.248e-08    -7.648    -7.648     0.000     18.97
   Fe(SO4)2-       2.050e-09   2.002e-09    -8.688    -8.699    -0.010     (0)  
   FeHSO4+2        3.792e-10   3.449e-10    -9.421    -9.462    -0.041     (0)  
   FeHSO4+         2.591e-11   2.530e-11   -10.587   -10.597    -0.010     (0)  

------------------------------Saturation indices-------------------------------

  Phase               SI** log IAP   log K(298 K,   1 atm)

  Fe(OH)3(a)        0.16      5.05    4.89  Fe(OH)3
  FeS(ppt)       -104.50   -108.42   -3.92  FeS
  Goethite          6.05      5.05   -1.00  FeOOH
  H2(g)           -33.09    -36.19   -3.10  H2
  H2O(g)           -1.50     -0.00    1.50  H2O
  H2S(g)         -101.97   -109.97   -7.99  H2S
  Hematite         14.11     10.10   -4.01  Fe2O3
  Mackinawite    -103.77   -108.42   -4.65  FeS
  Melanterite      -7.69     -9.90   -2.21  FeSO4:7H2O
  O2(g)           -17.10    -20.00   -2.89  O2
  Pyrite         -166.86   -185.34  -18.48  FeS2
  Sulfur          -74.87    -69.98    4.88  S

**For a gas, SI = log10(fugacity). Fugacity = pressure * phi / 1 atm.
  For ideal gases, phi = 1.

Reaction step 3.

WARNING: Negative moles in solution for Fe, -1.355145e-02. Recovering...
WARNING: Negative moles in solution for Fe, -9.486018e-04. Recovering...
WARNING: Negative moles in solution for Fe, -2.871856e-04. Recovering...
Using solution 1.	
Using kinetics 1.	

Kinetics 1.	

	Time step: 3.15e+07 seconds

	Rate name       Delta Moles Total Moles   Reactant        Coefficient

	Pyrite           -6.824e-05   9.999e-01   FeS2                      1

-----------------------------Solution composition------------------------------

	Elements           Molality       Moles

	Fe                6.824e-05   6.824e-05
	S                 1.365e-04   1.365e-04

----------------------------Description of solution----------------------------

                                       pH  =   3.767      Charge balance
                                       pe  =  12.763      Adjusted to redox equilibrium
       Specific Conductance (µS/cm, 25°C)  = 81
                          Density (g/cm³)  =   0.99706
                               Volume (L)  =   1.00297
                        Activity of water  =   1.000
                           Ionic strength  =   4.296e-04
                       Mass of water (kg)  =   1.000e+00
                 Total alkalinity (eq/kg)  =  -2.036e-04
                    Total carbon (mol/kg)  =   0.000e+00
                       Total CO2 (mol/kg)  =   0.000e+00
                         Temperature (°C)  =  25.00
                  Electrical balance (eq)  =  -1.214e-09
 Percent error, 100*(Cat-|An|)/(Cat+|An|)  =  -0.00
                               Iterations  = 693
                                  Total H  = 1.110124e+02
                                  Total O  = 5.550673e+01

----------------------------Distribution of species----------------------------

                                               Log       Log       Log    mole V
   Species          Molality    Activity  Molality  Activity     Gamma   cm³/mol

   H+              1.752e-04   1.712e-04    -3.757    -3.767    -0.010      0.00
   OH-             6.055e-11   5.913e-11   -10.218   -10.228    -0.010     -4.12
   H2O             5.551e+01   1.000e+00     1.744    -0.000     0.000     18.07
Fe(2)         1.142e-06
   Fe+2            1.120e-06   1.020e-06    -5.951    -5.991    -0.041    -22.17
   FeSO4           2.205e-08   2.205e-08    -7.657    -7.657     0.000     18.97
   FeHSO4+         2.541e-11   2.481e-11   -10.595   -10.605    -0.010     (0)  
   FeOH+           1.929e-12   1.884e-12   -11.715   -11.725    -0.010     (0)  
   Fe(OH)2         9.365e-20   9.366e-20   -19.028   -19.028     0.000     (0)  
   Fe(OH)3-        2.081e-26   2.033e-26   -25.682   -25.692    -0.010     (0)  
   Fe(HS)2         0.000e+00   0.000e+00  -209.580  -209.580     0.000     (0)  
   Fe(HS)3-        0.000e+00   0.000e+00  -313.803  -313.813    -0.010     (0)  
Fe(3)         6.709e-05
   Fe(OH)2+        4.217e-05   4.119e-05    -4.375    -4.385    -0.010     (0)  
   FeOH+2          2.339e-05   2.129e-05    -4.631    -4.672    -0.041     (0)  
   FeSO4+          7.706e-07   7.527e-07    -6.113    -6.123    -0.010     (0)  
   Fe+3            6.940e-07   5.646e-07    -6.159    -6.248    -0.090     (0)  
   Fe(OH)3         3.099e-08   3.099e-08    -7.509    -7.509     0.000     (0)  
   Fe2(OH)2+4      1.783e-08   1.220e-08    -7.749    -7.914    -0.165     (0)  
   Fe(SO4)2-       2.050e-09   2.002e-09    -8.688    -8.698    -0.010     (0)  
   FeHSO4+2        3.793e-10   3.450e-10    -9.421    -9.462    -0.041     (0)  
   Fe3(OH)4+5      1.899e-10   1.050e-10    -9.722    -9.979    -0.257     (0)  
   Fe(OH)4-        1.690e-13   1.651e-13   -12.772   -12.782    -0.010     (0)  
H(0)          1.235e-36
   H2              6.173e-37   6.174e-37   -36.210   -36.209     0.000     28.61
O(0)          2.187e-20
   O2              1.094e-20   1.094e-20   -19.961   -19.961     0.000     30.40
S(-2)         0.000e+00
   H2S             0.000e+00   0.000e+00  -103.094  -103.094     0.000     37.16
   HS-             0.000e+00   0.000e+00  -106.259  -106.269    -0.010     20.59
   S-2             0.000e+00   0.000e+00  -115.380  -115.421    -0.041     (0)  
   Fe(HS)2         0.000e+00   0.000e+00  -209.580  -209.580     0.000     (0)  
   Fe(HS)3-        0.000e+00   0.000e+00  -313.803  -313.813    -0.010     (0)  
S(6)          1.365e-04
   SO4-2           1.336e-04   1.216e-04    -3.874    -3.915    -0.041     14.47
   HSO4-           2.072e-06   2.024e-06    -5.684    -5.694    -0.010     40.27
   FeSO4+          7.706e-07   7.527e-07    -6.113    -6.123    -0.010     (0)  
   FeSO4           2.205e-08   2.205e-08    -7.657    -7.657     0.000     18.97
   Fe(SO4)2-       2.050e-09   2.002e-09    -8.688    -8.698    -0.010     (0)  
   FeHSO4+2        3.793e-10   3.450e-10    -9.421    -9.462    -0.041     (0)  
   FeHSO4+         2.541e-11   2.481e-11   -10.595   -10.605    -0.010     (0)  

------------------------------Saturation indices-------------------------------

  Phase               SI** log IAP   log K(298 K,   1 atm)

  Fe(OH)3(a)        0.16      5.05    4.89  Fe(OH)3
  FeS(ppt)       -104.58   -108.49   -3.92  FeS
  Goethite          6.05      5.05   -1.00  FeOOH
  H2(g)           -33.11    -36.21   -3.10  H2
  H2O(g)           -1.50     -0.00    1.50  H2O
  H2S(g)         -102.04   -110.04   -7.99  H2S
  Hematite         14.11     10.10   -4.01  Fe2O3
  Mackinawite    -103.85   -108.49   -4.65  FeS
  Melanterite      -7.70     -9.91   -2.21  FeSO4:7H2O
  O2(g)           -17.07    -19.96   -2.89  O2
  Pyrite         -166.99   -185.47  -18.48  FeS2
  Sulfur          -74.92    -70.03    4.88  S

**For a gas, SI = log10(fugacity). Fugacity = pressure * phi / 1 atm.
  For ideal gases, phi = 1.

------------------
End of simulation.
------------------

------------------------------------
Reading input data for simulation 2.
------------------------------------

	INCREMENTAL_REACTIONS true
	USE solution 1
	USE kinetics 1
	END
-----------------------------------------
Beginning of batch-reaction calculations.
-----------------------------------------

Reaction step 1.

WARNING: Negative moles in solution for Fe, -1.232754e-02. Recovering...
WARNING: Negative moles in solution for Fe, -8.629276e-04. Recovering...
WARNING: Negative moles in solution for Fe, -2.025256e-04. Recovering...
Using solution 1.	
Using kinetics 1.	

Kinetics 1.	

	Time step: 1.05e+07 seconds  (Incremented time: 1.05e+07 seconds)

	Rate name       Delta Moles Total Moles   Reactant        Coefficient

	Pyrite           -6.825e-05   9.999e-01   FeS2                      1

-----------------------------Solution composition------------------------------

	Elements           Molality       Moles

	Fe                6.825e-05   6.825e-05
	S                 1.365e-04   1.365e-04

----------------------------Description of solution----------------------------

                                       pH  =   3.767      Charge balance
                                       pe  =  12.695      Adjusted to redox equilibrium
       Specific Conductance (µS/cm, 25°C)  = 81
                          Density (g/cm³)  =   0.99706
                               Volume (L)  =   1.00297
                        Activity of water  =   1.000
                           Ionic strength  =   4.298e-04
                       Mass of water (kg)  =   1.000e+00
                 Total alkalinity (eq/kg)  =  -2.034e-04
                    Total carbon (mol/kg)  =   0.000e+00
                       Total CO2 (mol/kg)  =   0.000e+00
                         Temperature (°C)  =  25.00
                  Electrical balance (eq)  =  -1.216e-09
 Percent error, 100*(Cat-|An|)/(Cat+|An|)  =  -0.00
                               Iterations  = 692
                                  Total H  = 1.110124e+02
                                  Total O  = 5.550673e+01

----------------------------Distribution of species----------------------------

                                               Log       Log       Log    mole V
   Species          Molality    Activity  Molality  Activity     Gamma   cm³/mol

   H+              1.751e-04   1.711e-04    -3.757    -3.767    -0.010      0.00
   OH-             6.057e-11   5.915e-11   -10.218   -10.228    -0.010     -4.12
   H2O             5.551e+01   1.000e+00     1.744    -0.000     0.000     18.07
Fe(2)         1.332e-06
   Fe+2            1.306e-06   1.190e-06    -5.884    -5.925    -0.041    -22.17
   FeSO4           2.573e-08   2.573e-08    -7.590    -7.590     0.000     18.97
   FeHSO4+         2.963e-11   2.894e-11   -10.528   -10.538    -0.010     (0)  
   FeOH+           2.251e-12   2.199e-12   -11.648   -11.658    -0.010     (0)  
   Fe(OH)2         1.094e-19   1.094e-19   -18.961   -18.961     0.000     (0)  
   Fe(OH)3-        2.431e-26   2.375e-26   -25.614   -25.624    -0.010     (0)  
   Fe(HS)2         0.000e+00   0.000e+00  -208.422  -208.422     0.000     (0)  
   Fe(HS)3-        0.000e+00   0.000e+00  -312.098  -312.109    -0.010     (0)  
Fe(3)         6.692e-05
   Fe(OH)2+        4.206e-05   4.108e-05    -4.376    -4.386    -0.010     (0)  
   FeOH+2          2.333e-05   2.123e-05    -4.632    -4.673    -0.041     (0)  
   FeSO4+          7.682e-07   7.503e-07    -6.115    -6.125    -0.010     (0)  
   Fe+3            6.917e-07   5.627e-07    -6.160    -6.250    -0.090     (0)  
   Fe(OH)3         3.093e-08   3.093e-08    -7.510    -7.510     0.000     (0)  
   Fe2(OH)2+4      1.773e-08   1.213e-08    -7.751    -7.916    -0.165     (0)  
   Fe(SO4)2-       2.044e-09   1.996e-09    -8.690    -8.700    -0.010     (0)  
   FeHSO4+2        3.780e-10   3.438e-10    -9.423    -9.464    -0.041     (0)  
   Fe3(OH)4+5      1.883e-10   1.041e-10    -9.725    -9.982    -0.257     (0)  
   Fe(OH)4-        1.688e-13   1.649e-13   -12.773   -12.783    -0.010     (0)  
H(0)          1.690e-36
   H2              8.452e-37   8.453e-37   -36.073   -36.073     0.000     28.61
O(0)          1.167e-20
   O2              5.834e-21   5.834e-21   -20.234   -20.234     0.000     30.40
S(-2)         0.000e+00
   H2S             0.000e+00   0.000e+00  -102.549  -102.549     0.000     37.16
   HS-             0.000e+00   0.000e+00  -105.713  -105.724    -0.010     20.59
   S-2             0.000e+00   0.000e+00  -114.834  -114.875    -0.041     (0)  
   Fe(HS)2         0.000e+00   0.000e+00  -208.422  -208.422     0.000     (0)  
   Fe(HS)3-        0.000e+00   0.000e+00  -312.098  -312.109    -0.010     (0)  
S(6)          1.365e-04
   SO4-2           1.336e-04   1.216e-04    -3.874    -3.915    -0.041     14.47
   HSO4-           2.072e-06   2.023e-06    -5.684    -5.694    -0.010     40.27
   FeSO4+          7.682e-07   7.503e-07    -6.115    -6.125    -0.010     (0)  
   FeSO4           2.573e-08   2.573e-08    -7.590    -7.590     0.000     18.97
   Fe(SO4)2-       2.044e-09   1.996e-09    -8.690    -8.700    -0.010     (0)  
   FeHSO4+2        3.780e-10   3.438e-10    -9.423    -9.464    -0.041     (0)  
   FeHSO4+         2.963e-11   2.894e-11   -10.528   -10.538    -0.010     (0)  

------------------------------Saturation indices-------------------------------

  Phase               SI** log IAP   log K(298 K,   1 atm)

  Fe(OH)3(a)        0.16      5.05    4.89  Fe(OH)3
  FeS(ppt)       -103.97   -107.88   -3.92  FeS
  Goethite          6.05      5.05   -1.00  FeOOH
  H2(g)           -32.97    -36.07   -3.10  H2
  H2O(g)           -1.50     -0.00    1.50  H2O
  H2S(g)         -101.50   -109.49   -7.99  H2S
  Hematite         14.11     10.10   -4.01  Fe2O3
  Mackinawite    -103.23   -107.88   -4.65  FeS
  Melanterite      -7.63     -9.84   -2.21  FeSO4:7H2O
  O2(g)           -17.34    -20.23   -2.89  O2
  Pyrite         -165.97   -184.45  -18.48  FeS2
  Sulfur          -74.51    -69.63    4.88  S

**For a gas, SI = log10(fugacity). Fugacity = pressure * phi / 1 atm.
  For ideal gases, phi = 1.

Reaction step 2.

Using solution 1.	
Using kinetics 1.	

Kinetics 1.	

	Time step: 1.05e+07 seconds  (Incremented time: 2.1e+07 seconds)

	Rate name       Delta Moles Total Moles   Reactant        Coefficient

	Pyrite           -1.329e-09   9.999e-01   FeS2                      1

-----------------------------Solution composition------------------------------

	Elements           Molality       Moles

	Fe                6.825e-05   6.825e-05
	S                 1.365e-04   1.365e-04

----------------------------Description of solution----------------------------

                                       pH  =   3.767      Charge balance
                                       pe  =  12.688      Adjusted to redox equilibrium
       Specific Conductance (µS/cm, 25°C)  = 81
                          Density (g/cm³)  =   0.99706
                               Volume (L)  =   1.00297
                        Activity of water  =   1.000
                           Ionic strength  =   4.298e-04
                       Mass of water (kg)  =   1.000e+00
                 Total alkalinity (eq/kg)  =  -2.034e-04
                    Total carbon (mol/kg)  =   0.000e+00
                       Total CO2 (mol/kg)  =   0.000e+00
                         Temperature (°C)  =  25.00
                  Electrical balance (eq)  =  -1.216e-09
 Percent error, 100*(Cat-|An|)/(Cat+|An|)  =  -0.00
                               Iterations  =   6
                                  Total H  = 1.110124e+02
                                  Total O  = 5.550673e+01

----------------------------Distribution of species----------------------------

                                               Log       Log       Log    mole V
   Species          Molality    Activity  Molality  Activity     Gamma   cm³/mol

   H+              1.751e-04   1.711e-04    -3.757    -3.767    -0.010      0.00
   OH-             6.058e-11   5.915e-11   -10.218   -10.228    -0.010     -4.12
   H2O             5.551e+01   1.000e+00     1.744    -0.000     0.000     18.07
Fe(2)         1.352e-06
   Fe+2            1.326e-06   1.208e-06    -5.877    -5.918    -0.041    -22.17
   FeSO4           2.611e-08   2.612e-08    -7.583    -7.583     0.000     18.97
   FeHSO4+         3.008e-11   2.937e-11   -10.522   -10.532    -0.010     (0)  
   FeOH+           2.285e-12   2.232e-12   -11.641   -11.651    -0.010     (0)  
   Fe(OH)2         1.110e-19   1.110e-19   -18.955   -18.955     0.000     (0)  
   Fe(OH)3-        2.468e-26   2.411e-26   -25.608   -25.618    -0.010     (0)  
   Fe(HS)2         0.000e+00   0.000e+00  -208.310  -208.310     0.000     (0)  
   Fe(HS)3-        0.000e+00   0.000e+00  -311.934  -311.944    -0.010     (0)  
Fe(3)         6.690e-05
   Fe(OH)2+        4.205e-05   4.107e-05    -4.376    -4.386    -0.010     (0)  
   FeOH+2          2.332e-05   2.122e-05    -4.632    -4.673    -0.041     (0)  
   FeSO4+          7.679e-07   7.500e-07    -6.115    -6.125    -0.010     (0)  
   Fe+3            6.915e-07   5.625e-07    -6.160    -6.250    -0.090     (0)  
   Fe(OH)3         3.092e-08   3.092e-08    -7.510    -7.510     0.000     (0)  
   Fe2(OH)2+4      1.772e-08   1.212e-08    -7.752    -7.916    -0.165     (0)  
   Fe(SO4)2-       2.043e-09   1.996e-09    -8.690    -8.700    -0.010     (0)  
   FeHSO4+2        3.778e-10   3.437e-10    -9.423    -9.464    -0.041     (0)  
   Fe3(OH)4+5      1.882e-10   1.040e-10    -9.725    -9.983    -0.257     (0)  
   Fe(OH)4-        1.687e-13   1.648e-13   -12.773   -12.783    -0.010     (0)  
H(0)          1.742e-36
   H2              8.712e-37   8.713e-37   -36.060   -36.060     0.000     28.61
O(0)          1.098e-20
   O2              5.490e-21   5.491e-21   -20.260   -20.260     0.000     30.40
S(-2)         0.000e+00
   H2S             0.000e+00   0.000e+00  -102.496  -102.496     0.000     37.16
   HS-             0.000e+00   0.000e+00  -105.661  -105.671    -0.010     20.59
   S-2             0.000e+00   0.000e+00  -114.781  -114.822    -0.041     (0)  
   Fe(HS)2         0.000e+00   0.000e+00  -208.310  -208.310     0.000     (0)  
   Fe(HS)3-        0.000e+00   0.000e+00  -311.934  -311.944    -0.010     (0)  
S(6)          1.365e-04
   SO4-2           1.336e-04   1.216e-04    -3.874    -3.915    -0.041     14.47
   HSO4-           2.072e-06   2.023e-06    -5.684    -5.694    -0.010     40.27
   FeSO4+          7.679e-07   7.500e-07    -6.115    -6.125    -0.010     (0)  
   FeSO4           2.611e-08   2.612e-08    -7.583    -7.583     0.000     18.97
   Fe(SO4)2-       2.043e-09   1.996e-09    -8.690    -8.700    -0.010     (0)  
   FeHSO4+2        3.778e-10   3.437e-10    -9.423    -9.464    -0.041     (0)  
   FeHSO4+         3.008e-11   2.937e-11   -10.522   -10.532    -0.010     (0)  

------------------------------Saturation indices-------------------------------

  Phase               SI** log IAP   log K(298 K,   1 atm)

  Fe(OH)3(a)        0.16      5.05    4.89  Fe(OH)3
  FeS(ppt)       -103.91   -107.82   -3.92  FeS
  Goethite          6.05      5.05   -1.00  FeOOH
  H2(g)           -32.96    -36.06   -3.10  H2
  H2O(g)           -1.50     -0.00    1.50  H2O
  H2S(g)         -101.45   -109.44   -7.99  H2S
  Hematite         14.11     10.10   -4.01  Fe2O3
  Mackinawite    -103.17   -107.82   -4.65  FeS
  Melanterite      -7.62     -9.83   -2.21  FeSO4:7H2O
  O2(g)           -17.37    -20.26   -2.89  O2
  Pyrite         -165.87   -184.35  -18.48  FeS2
  Sulfur          -74.47    -69.59    4.88  S

**For a gas, SI = log10(fugacity). Fugacity = pressure * phi / 1 atm.
  For ideal gases, phi = 1.

Reaction step 3.

Using solution 1.	
Using kinetics 1.	

Kinetics 1.	

	Time step: 1.05e+07 seconds  (Incremented time: 3.15e+07 seconds)

	Rate name       Delta Moles Total Moles   Reactant        Coefficient

	Pyrite           -1.301e-09   9.999e-01   FeS2                      1

-----------------------------Solution composition------------------------------

	Elements           Molality       Moles

	Fe                6.825e-05   6.825e-05
	S                 1.365e-04   1.365e-04

----------------------------Description of solution----------------------------

                                       pH  =   3.767      Charge balance
                                       pe  =  12.682      Adjusted to redox equilibrium
       Specific Conductance (µS/cm, 25°C)  = 81
                          Density (g/cm³)  =   0.99706
                               Volume (L)  =   1.00297
                        Activity of water  =   1.000
                           Ionic strength  =   4.298e-04
                       Mass of water (kg)  =   1.000e+00
                 Total alkalinity (eq/kg)  =  -2.034e-04
                    Total carbon (mol/kg)  =   0.000e+00
                       Total CO2 (mol/kg)  =   0.000e+00
                         Temperature (°C)  =  25.00
                  Electrical balance (eq)  =  -1.216e-09
 Percent error, 100*(Cat-|An|)/(Cat+|An|)  =  -0.00
                               Iterations  =   2
                                  Total H  = 1.110124e+02
                                  Total O  = 5.550673e+01

----------------------------Distribution of species----------------------------

                                               Log       Log       Log    mole V
   Species          Molality    Activity  Molality  Activity     Gamma   cm³/mol

   H+              1.751e-04   1.711e-04    -3.757    -3.767    -0.010      0.00
   OH-             6.058e-11   5.916e-11   -10.218   -10.228    -0.010     -4.12
   H2O             5.551e+01   1.000e+00     1.744    -0.000     0.000     18.07
Fe(2)         1.372e-06
   Fe+2            1.345e-06   1.225e-06    -5.871    -5.912    -0.041    -22.17
   FeSO4           2.649e-08   2.649e-08    -7.577    -7.577     0.000     18.97
   FeHSO4+         3.051e-11   2.980e-11   -10.516   -10.526    -0.010     (0)  
   FeOH+           2.318e-12   2.264e-12   -11.635   -11.645    -0.010     (0)  
   Fe(OH)2         1.126e-19   1.126e-19   -18.948   -18.948     0.000     (0)  
   Fe(OH)3-        2.504e-26   2.446e-26   -25.601   -25.612    -0.010     (0)  
   Fe(HS)2         0.000e+00   0.000e+00  -208.202  -208.202     0.000     (0)  
   Fe(HS)3-        0.000e+00   0.000e+00  -311.775  -311.786    -0.010     (0)  
Fe(3)         6.688e-05
   Fe(OH)2+        4.204e-05   4.106e-05    -4.376    -4.387    -0.010     (0)  
   FeOH+2          2.331e-05   2.122e-05    -4.632    -4.673    -0.041     (0)  
   FeSO4+          7.677e-07   7.498e-07    -6.115    -6.125    -0.010     (0)  
   Fe+3            6.912e-07   5.623e-07    -6.160    -6.250    -0.090     (0)  
   Fe(OH)3         3.091e-08   3.092e-08    -7.510    -7.510     0.000     (0)  
   Fe2(OH)2+4      1.770e-08   1.212e-08    -7.752    -7.917    -0.165     (0)  
   Fe(SO4)2-       2.043e-09   1.995e-09    -8.690    -8.700    -0.010     (0)  
   FeHSO4+2        3.777e-10   3.435e-10    -9.423    -9.464    -0.041     (0)  
   Fe3(OH)4+5      1.880e-10   1.040e-10    -9.726    -9.983    -0.257     (0)  
   Fe(OH)4-        1.687e-13   1.648e-13   -12.773   -12.783    -0.010     (0)  
H(0)          1.794e-36
   H2              8.971e-37   8.972e-37   -36.047   -36.047     0.000     28.61
O(0)          1.036e-20
   O2              5.179e-21   5.179e-21   -20.286   -20.286     0.000     30.40
S(-2)         0.000e+00
   H2S             0.000e+00   0.000e+00  -102.445  -102.445     0.000     37.16
   HS-             0.000e+00   0.000e+00  -105.610  -105.620    -0.010     20.59
   S-2             0.000e+00   0.000e+00  -114.731  -114.772    -0.041     (0)  
   Fe(HS)2         0.000e+00   0.000e+00  -208.202  -208.202     0.000     (0)  
   Fe(HS)3-        0.000e+00   0.000e+00  -311.775  -311.786    -0.010     (0)  
S(6)          1.365e-04
   SO4-2           1.336e-04   1.216e-04    -3.874    -3.915    -0.041     14.47
   HSO4-           2.072e-06   2.023e-06    -5.684    -5.694    -0.010     40.27
   FeSO4+          7.677e-07   7.498e-07    -6.115    -6.125    -0.010     (0)  
   FeSO4           2.649e-08   2.649e-08    -7.577    -7.577     0.000     18.97
   Fe(SO4)2-       2.043e-09   1.995e-09    -8.690    -8.700    -0.010     (0)  
   FeHSO4+2        3.777e-10   3.435e-10    -9.423    -9.464    -0.041     (0)  
   FeHSO4+         3.051e-11   2.980e-11   -10.516   -10.526    -0.010     (0)  

------------------------------Saturation indices-------------------------------

  Phase               SI** log IAP   log K(298 K,   1 atm)

  Fe(OH)3(a)        0.16      5.05    4.89  Fe(OH)3
  FeS(ppt)       -103.85   -107.77   -3.92  FeS
  Goethite          6.05      5.05   -1.00  FeOOH
  H2(g)           -32.95    -36.05   -3.10  H2
  H2O(g)           -1.50     -0.00    1.50  H2O
  H2S(g)         -101.39   -109.39   -7.99  H2S
  Hematite         14.11     10.10   -4.01  Fe2O3
  Mackinawite    -103.12   -107.77   -4.65  FeS
  Melanterite      -7.62     -9.83   -2.21  FeSO4:7H2O
  O2(g)           -17.39    -20.29   -2.89  O2
  Pyrite         -165.78   -184.26  -18.48  FeS2
  Sulfur          -74.43    -69.55    4.88  S

**For a gas, SI = log10(fugacity). Fugacity = pressure * phi / 1 atm.
  For ideal gases, phi = 1.

------------------
End of simulation.
------------------

------------------------------------
Reading input data for simulation 3.
------------------------------------

	INCREMENTAL_REACTIONS false
	USE solution 1
	SELECTED_OUTPUT
		file cumulativetime.sel
		reset false
		time
	USE kinetics 1
	END
-----------------------------------------
Beginning of batch-reaction calculations.
-----------------------------------------

Reaction step 1.

WARNING: Negative moles in solution for Fe, -1.232746e-02. Recovering...
WARNING: Negative moles in solution for Fe, -8.629222e-04. Recovering...
WARNING: Negative moles in solution for Fe, -2.025217e-04. Recovering...
Using solution 1.	
Using kinetics 1.	

Kinetics 1.	

	Time step: 1.05e+07 seconds

	Rate name       Delta Moles Total Moles   Reactant        Coefficient

	Pyrite           -6.825e-05   9.998e-01   FeS2                      1

-----------------------------Solution composition------------------------------

	Elements           Molality       Moles

	Fe                6.825e-05   6.825e-05
	S                 1.365e-04   1.365e-04

----------------------------Description of solution----------------------------

                                       pH  =   3.767      Charge balance
                                       pe  =  12.695      Adjusted to redox equilibrium
       Specific Conductance (µS/cm, 25°C)  = 81
                          Density (g/cm³)  =   0.99706
                               Volume (L)  =   1.00297
                        Activity of water  =   1.000
                           Ionic strength  =   4.298e-04
                       Mass of water (kg)  =   1.000e+00
                 Total alkalinity (eq/kg)  =  -2.034e-04
                    Total carbon (mol/kg)  =   0.000e+00
                       Total CO2 (mol/kg)  =   0.000e+00
                         Temperature (°C)  =  25.00
                  Electrical balance (eq)  =  -1.216e-09
 Percent error, 100*(Cat-|An|)/(Cat+|An|)  =  -0.00
                               Iterations  = 692
                                  Total H  = 1.110124e+02
                                  Total O  = 5.550673e+01

----------------------------Distribution of species----------------------------

                                               Log       Log       Log    mole V
   Species          Molality    Activity  Molality  Activity     Gamma   cm³/mol

   H+              1.751e-04   1.711e-04    -3.757    -3.767    -0.010      0.00
   OH-             6.057e-11   5.915e-11   -10.218   -10.228    -0.010     -4.12
   H2O             5.551e+01   1.000e+00     1.744    -0.000     0.000     18.07
Fe(2)         1.332e-06
   Fe+2            1.306e-06   1.190e-06    -5.884    -5.925    -0.041    -22.17
   FeSO4           2.573e-08   2.573e-08    -7.590    -7.590     0.000     18.97
   FeHSO4+         2.964e-11   2.894e-11   -10.528   -10.538    -0.010     (0)  
   FeOH+           2.251e-12   2.199e-12   -11.648   -11.658    -0.010     (0)  
   Fe(OH)2         1.094e-19   1.094e-19   -18.961   -18.961     0.000     (0)  
   Fe(OH)3-        2.431e-26   2.375e-26   -25.614   -25.624    -0.010     (0)  
   Fe(HS)2         0.000e+00   0.000e+00  -208.422  -208.422     0.000     (0)  
   Fe(HS)3-        0.000e+00   0.000e+00  -312.098  -312.108    -0.010     (0)  
Fe(3)         6.692e-05
   Fe(OH)2+        4.206e-05   4.108e-05    -4.376    -4.386    -0.010     (0)  
   FeOH+2          2.333e-05   2.123e-05    -4.632    -4.673    -0.041     (0)  
   FeSO4+          7.682e-07   7.503e-07    -6.115    -6.125    -0.010     (0)  
   Fe+3            6.917e-07   5.627e-07    -6.160    -6.250    -0.090     (0)  
   Fe(OH)3         3.093e-08   3.093e-08    -7.510    -7.510     0.000     (0)  
   Fe2(OH)2+4      1.773e-08   1.213e-08    -7.751    -7.916    -0.165     (0)  
   Fe(SO4)2-       2.044e-09   1.996e-09    -8.690    -8.700    -0.010     (0)  
   FeHSO4+2        3.780e-10   3.438e-10    -9.423    -9.464    -0.041     (0)  
   Fe3(OH)4+5      1.883e-10   1.041e-10    -9.725    -9.982    -0.257     (0)  
   Fe(OH)4-        1.688e-13   1.649e-13   -12.773   -12.783    -0.010     (0)  
H(0)          1.690e-36
   H2              8.452e-37   8.453e-37   -36.073   -36.073     0.000     28.61
O(0)          1.167e-20
   O2              5.833e-21   5.834e-21   -20.234   -20.234     0.000     30.40
S(-2)         0.000e+00
   H2S             0.000e+00   0.000e+00  -102.549  -102.549     0.000     37.16
   HS-             0.000e+00   0.000e+00  -105.713  -105.724    -0.010     20.59
   S-2             0.000e+00   0.000e+00  -114.834  -114.875    -0.041     (0)  
   Fe(HS)2         0.000e+00   0.000e+00  -208.422  -208.422     0.000     (0)  
   Fe(HS)3-        0.000e+00   0.000e+00  -312.098  -312.108    -0.010     (0)  
S(6)          1.365e-04
   SO4-2           1.336e-04   1.216e-04    -3.874    -3.915    -0.041     14.47
   HSO4-           2.072e-06   2.023e-06    -5.684    -5.694    -0.010     40.27
   FeSO4+          7.682e-07   7.503e-07    -6.115    -6.125    -0.010     (0)  
   FeSO4           2.573e-08   2.573e-08    -7.590    -7.590     0.000     18.97
   Fe(SO4)2-       2.044e-09   1.996e-09    -8.690    -8.700    -0.010     (0)  
   FeHSO4+2        3.780e-10   3.438e-10    -9.423    -9.464    -0.041     (0)  
   FeHSO4+         2.964e-11   2.894e-11   -10.528   -10.538    -0.010     (0)  

------------------------------Saturation indices-------------------------------

  Phase               SI** log IAP   log K(298 K,   1 atm)

  Fe(OH)3(a)        0.16      5.05    4.89  Fe(OH)3
  FeS(ppt)       -103.97   -107.88   -3.92  FeS
  Goethite          6.05      5.05   -1.00  FeOOH
  H2(g)           -32.97    -36.07   -3.10  H2
  H2O(g)           -1.50     -0.00    1.50  H2O
  H2S(g)         -101.50   -109.49   -7.99  H2S
  Hematite         14.11     10.10   -4.01  Fe2O3
  Mackinawite    -103.23   -107.88   -4.65  FeS
  Melanterite      -7.63     -9.84   -2.21  FeSO4:7H2O
  O2(g)           -17.34    -20.23   -2.89  O2
  Pyrite         -165.97   -184.45  -18.48  FeS2
  Sulfur          -74.51    -69.63    4.88  S

**For a gas, SI = log10(fugacity). Fugacity = pressure * phi / 1 atm.
  For ideal gases, phi = 1.

Reaction step 2.

WARNING: Negative moles in solution for Fe, -1.322318e-02. Recovering...
WARNING: Negative moles in solution for Fe, -9.256224e-04. Recovering...
WARNING: Negative moles in solution for Fe, -2.585507e-04. Recovering...
Using solution 1.	
Using kinetics 1.	

Kinetics 1.	

	Time step: 2.1e+07 seconds

	Rate name       Delta Moles Total Moles   Reactant        Coefficient

	Pyrite           -6.824e-05   9.998e-01   FeS2                      1

-----------------------------Solution composition------------------------------

	Elements           Molality       Moles

	Fe                6.824e-05   6.824e-05
	S                 1.365e-04   1.365e-04

----------------------------Description of solution----------------------------

                                       pH  =   3.767      Charge balance
                                       pe  =  12.755      Adjusted to redox equilibrium
       Specific Conductance (µS/cm, 25°C)  = 81
                          Density (g/cm³)  =   0.99706
                               Volume (L)  =   1.00297
                        Activity of water  =   1.000
                           Ionic strength  =   4.296e-04
                       Mass of water (kg)  =   1.000e+00
                 Total alkalinity (eq/kg)  =  -2.035e-04
                    Total carbon (mol/kg)  =   0.000e+00
                       Total CO2 (mol/kg)  =   0.000e+00
                         Temperature (°C)  =  25.00
                  Electrical balance (eq)  =  -1.215e-09
 Percent error, 100*(Cat-|An|)/(Cat+|An|)  =  -0.00
                               Iterations  = 691
                                  Total H  = 1.110124e+02
                                  Total O  = 5.550673e+01

----------------------------Distribution of species----------------------------

                                               Log       Log       Log    mole V
   Species          Molality    Activity  Molality  Activity     Gamma   cm³/mol

   H+              1.751e-04   1.712e-04    -3.757    -3.767    -0.010      0.00
   OH-             6.055e-11   5.913e-11   -10.218   -10.228    -0.010     -4.12
   H2O             5.551e+01   1.000e+00     1.744    -0.000     0.000     18.07
Fe(2)         1.164e-06
   Fe+2            1.142e-06   1.040e-06    -5.942    -5.983    -0.041    -22.17
   FeSO4           2.248e-08   2.248e-08    -7.648    -7.648     0.000     18.97
   FeHSO4+         2.591e-11   2.530e-11   -10.587   -10.597    -0.010     (0)  
   FeOH+           1.967e-12   1.921e-12   -11.706   -11.716    -0.010     (0)  
   Fe(OH)2         9.551e-20   9.551e-20   -19.020   -19.020     0.000     (0)  
   Fe(OH)3-        2.122e-26   2.073e-26   -25.673   -25.683    -0.010     (0)  
   Fe(HS)2         0.000e+00   0.000e+00  -209.434  -209.434     0.000     (0)  
   Fe(HS)3-        0.000e+00   0.000e+00  -313.587  -313.598    -0.010     (0)  
Fe(3)         6.707e-05
   Fe(OH)2+        4.215e-05   4.117e-05    -4.375    -4.385    -0.010     (0)  
   FeOH+2          2.339e-05   2.129e-05    -4.631    -4.672    -0.041     (0)  
   FeSO4+          7.703e-07   7.524e-07    -6.113    -6.124    -0.010     (0)  
   Fe+3            6.937e-07   5.643e-07    -6.159    -6.248    -0.090     (0)  
   Fe(OH)3         3.098e-08   3.099e-08    -7.509    -7.509     0.000     (0)  
   Fe2(OH)2+4      1.782e-08   1.219e-08    -7.749    -7.914    -0.165     (0)  
   Fe(SO4)2-       2.050e-09   2.002e-09    -8.688    -8.699    -0.010     (0)  
   FeHSO4+2        3.792e-10   3.449e-10    -9.421    -9.462    -0.041     (0)  
   Fe3(OH)4+5      1.897e-10   1.049e-10    -9.722    -9.979    -0.257     (0)  
   Fe(OH)4-        1.690e-13   1.651e-13   -12.772   -12.782    -0.010     (0)  
H(0)          1.285e-36
   H2              6.423e-37   6.424e-37   -36.192   -36.192     0.000     28.61
O(0)          2.020e-20
   O2              1.010e-20   1.010e-20   -19.996   -19.996     0.000     30.40
S(-2)         0.000e+00
   H2S             0.000e+00   0.000e+00  -103.025  -103.025     0.000     37.16
   HS-             0.000e+00   0.000e+00  -106.190  -106.201    -0.010     20.59
   S-2             0.000e+00   0.000e+00  -115.311  -115.352    -0.041     (0)  
   Fe(HS)2         0.000e+00   0.000e+00  -209.434  -209.434     0.000     (0)  
   Fe(HS)3-        0.000e+00   0.000e+00  -313.587  -313.598    -0.010     (0)  
S(6)          1.365e-04
   SO4-2           1.336e-04   1.216e-04    -3.874    -3.915    -0.041     14.47
   HSO4-           2.072e-06   2.024e-06    -5.684    -5.694    -0.010     40.27
   FeSO4+          7.703e-07   7.524e-07    -6.113    -6.124    -0.010     (0)  
   FeSO4           2.248e-08   2.248e-08    -7.648    -7.648     0.000     18.97
   Fe(SO4)2-       2.050e-09   2.002e-09    -8.688    -8.699    -0.010     (0)  
   FeHSO4+2        3.792e-10   3.449e-10    -9.421    -9.462    -0.041     (0)  
   FeHSO4+         2.591e-11   2.530e-11   -10.587   -10.597    -0.010     (0)  

------------------------------Saturation indices-------------------------------

  Phase               SI** log IAP   log K(298 K,   1 atm)

  Fe(OH)3(a)        0.16      5.05    4.89  Fe(OH)3
  FeS(ppt)       -104.50   -108.42   -3.92  FeS
  Goethite          6.05      5.05   -1.00  FeOOH
  H2(g)           -33.09    -36.19   -3.10  H2
  H2O(g)           -1.50     -0.00    1.50  H2O
  H2S(g)         -101.97   -109.97   -7.99  H2S
  Hematite         14.11     10.10   -4.01  Fe2O3
  Mackinawite    -103.77   -108.42   -4.65  FeS
  Melanterite      -7.69     -9.90   -2.21  FeSO4:7H2O
  O2(g)           -17.10    -20.00   -2.89  O2
  Pyrite         -166.86   -185.34  -18.48  FeS2
  Sulfur          -74.87    -69.98    4.88  S

**For a gas, SI = log10(fugacity). Fugacity = pressure * phi / 1 atm.
  For ideal gases, phi = 1.

Reaction step 3.

WARNING: Negative moles in solution for Fe, -1.355139e-02. Recovering...
WARNING: Negative moles in solution for Fe, -9.485975e-04. Recovering...
WARNING: Negative moles in solution for Fe, -2.871796e-04. Recovering...
Using solution 1.	
Using kinetics 1.	

Kinetics 1.	

	Time step: 3.15e+07 seconds

	Rate name       Delta Moles Total Moles   Reactant        Coefficient

	Pyrite           -6.824e-05   9.998e-01   FeS2                      1

-----------------------------Solution composition------------------------------

	Elements           Molality       Moles

	Fe                6.824e-05   6.824e-05
	S                 1.365e-04   1.365e-04

----------------------------Description of solution----------------------------

                                       pH  =   3.767      Charge balance
                                       pe  =  12.763      Adjusted to redox equilibrium
       Specific Conductance (µS/cm, 25°C)  = 81
                          Density (g/cm³)  =   0.99706
                               Volume (L)  =   1.00297
                        Activity of water  =   1.000
                           Ionic strength  =   4.296e-04
                       Mass of water (kg)  =   1.000e+00
                 Total alkalinity (eq/kg)  =  -2.036e-04
                    Total carbon (mol/kg)  =   0.000e+00
                       Total CO2 (mol/kg)  =   0.000e+00
                         Temperature (°C)  =  25.00
                  Electrical balance (eq)  =  -1.214e-09
 Percent error, 100*(Cat-|An|)/(Cat+|An|)  =  -0.00
                               Iterations  = 693
                                  Total H  = 1.110124e+02
                                  Total O  = 5.550673e+01

----------------------------Distribution of species----------------------------

                                               Log       Log       Log    mole V
   Species          Molality    Activity  Molality  Activity     Gamma   cm³/mol

   H+              1.752e-04   1.712e-04    -3.757    -3.767    -0.010      0.00
   OH-             6.055e-11   5.913e-11   -10.218   -10.228    -0.010     -4.12
   H2O             5.551e+01   1.000e+00     1.744    -0.000     0.000     18.07
Fe(2)         1.142e-06
   Fe+2            1.120e-06   1.020e-06    -5.951    -5.991    -0.041    -22.17
   FeSO4           2.205e-08   2.205e-08    -7.657    -7.657     0.000     18.97
   FeHSO4+         2.541e-11   2.481e-11   -10.595   -10.605    -0.010     (0)  
   FeOH+           1.929e-12   1.884e-12   -11.715   -11.725    -0.010     (0)  
   Fe(OH)2         9.365e-20   9.366e-20   -19.028   -19.028     0.000     (0)  
   Fe(OH)3-        2.081e-26   2.033e-26   -25.682   -25.692    -0.010     (0)  
   Fe(HS)2         0.000e+00   0.000e+00  -209.580  -209.580     0.000     (0)  
   Fe(HS)3-        0.000e+00   0.000e+00  -313.803  -313.813    -0.010     (0)  
Fe(3)         6.709e-05
   Fe(OH)2+        4.217e-05   4.119e-05    -4.375    -4.385    -0.010     (0)  
   FeOH+2          2.339e-05   2.129e-05    -4.631    -4.672    -0.041     (0)  
   FeSO4+          7.706e-07   7.527e-07    -6.113    -6.123    -0.010     (0)  
   Fe+3            6.940e-07   5.646e-07    -6.159    -6.248    -0.090     (0)  
   Fe(OH)3         3.099e-08   3.099e-08    -7.509    -7.509     0.000     (0)  
   Fe2(OH)2+4      1.783e-08   1.220e-08    -7.749    -7.914    -0.165     (0)  
   Fe(SO4)2-       2.050e-09   2.002e-09    -8.688    -8.698    -0.010     (0)  
   FeHSO4+2        3.793e-10   3.450e-10    -9.421    -9.462    -0.041     (0)  
   Fe3(OH)4+5      1.899e-10   1.050e-10    -9.722    -9.979    -0.257     (0)  
   Fe(OH)4-        1.690e-13   1.651e-13   -12.772   -12.782    -0.010     (0)  
H(0)          1.235e-36
   H2              6.173e-37   6.174e-37   -36.210   -36.209     0.000     28.61
O(0)          2.187e-20
   O2              1.094e-20   1.094e-20   -19.961   -19.961     0.000     30.40
S(-2)         0.000e+00
   H2S             0.000e+00   0.000e+00  -103.094  -103.094     0.000     37.16
   HS-             0.000e+00   0.000e+00  -106.259  -106.269    -0.010     20.59
   S-2             0.000e+00   0.000e+00  -115.380  -115.421    -0.041     (0)  
   Fe(HS)2         0.000e+00   0.000e+00  -209.580  -209.580     0.000     (0)  
   Fe(HS)3-        0.000e+00   0.000e+00  -313.803  -313.813    -0.010     (0)  
S(6)          1.365e-04
   SO4-2           1.336e-04   1.216e-04    -3.874    -3.915    -0.041     14.47
   HSO4-           2.072e-06   2.024e-06    -5.684    -5.694    -0.010     40.27
   FeSO4+          7.706e-07   7.527e-07    -6.113    -6.123    -0.010     (0)  
   FeSO4           2.205e-08   2.205e-08    -7.657    -7.657     0.000     18.97
   Fe(SO4)2-       2.050e-09   2.002e-09    -8.688    -8.698    -0.010     (0)  
   FeHSO4+2        3.793e-10   3.450e-10    -9.421    -9.462    -0.041     (0)  
   FeHSO4+         2.541e-11   2.481e-11   -10.595   -10.605    -0.010     (0)  

------------------------------Saturation indices-------------------------------

  Phase               SI** log IAP   log K(298 K,   1 atm)

  Fe(OH)3(a)        0.16      5.05    4.89  Fe(OH)3
  FeS(ppt)       -104.58   -108.49   -3.92  FeS
  Goethite          6.05      5.05   -1.00  FeOOH
  H2(g)           -33.11    -36.21   -3.10  H2
  H2O(g)           -1.50     -0.00    1.50  H2O
  H2S(g)         -102.04   -110.04   -7.99  H2S
  Hematite         14.11     10.10   -4.01  Fe2O3
  Mackinawite    -103.85   -108.49   -4.65  FeS
  Melanterite      -7.70     -9.91   -2.21  FeSO4:7H2O
  O2(g)           -17.07    -19.96   -2.89  O2
  Pyrite         -166.99   -185.47  -18.48  FeS2
  Sulfur          -74.92    -70.03    4.88  S

**For a gas, SI = log10(fugacity). Fugacity = pressure * phi / 1 atm.
  For ideal gases, phi = 1.

------------------
End of simulation.
------------------

------------------------------------
Reading input data for simulation 4.
------------------------------------

	INCREMENTAL_REACTIONS true 
	USE solution 1
	INCREMENTAL_REACTIONS true
	USE kinetics 1
	END
-----------------------------------------
Beginning of batch-reaction calculations.
-----------------------------------------

Reaction step 1.

WARNING: Negative moles in solution for Fe, -1.232738e-02. Recovering...
WARNING: Negative moles in solution for Fe, -8.629169e-04. Recovering...
WARNING: Negative moles in solution for Fe, -2.025178e-04. Recovering...
Using solution 1.	
Using kinetics 1.	

Kinetics 1.	

	Time step: 1.05e+07 seconds  (Incremented time: 1.05e+07 seconds)

	Rate name       Delta Moles Total Moles   Reactant        Coefficient

	Pyrite           -6.825e-05   9.997e-01   FeS2                      1

-----------------------------Solution composition------------------------------

	Elements           Molality       Moles

	Fe                6.825e-05   6.825e-05
	S                 1.365e-04   1.365e-04

----------------------------Description of solution----------------------------

                                       pH  =   3.767      Charge balance
                                       pe  =  12.695      Adjusted to redox equilibrium
       Specific Conductance (µS/cm, 25°C)  = 81
                          Density (g/cm³)  =   0.99706
                               Volume (L)  =   1.00297
                        Activity of water  =   1.000
                           Ionic strength  =   4.298e-04
                       Mass of water (kg)  =   1.000e+00
                 Total alkalinity (eq/kg)  =  -2.034e-04
                    Total carbon (mol/kg)  =   0.000e+00
                       Total CO2 (mol/kg)  =   0.000e+00
                         Temperature (°C)  =  25.00
                  Electrical balance (eq)  =  -1.216e-09
 Percent error, 100*(Cat-|An|)/(Cat+|An|)  =  -0.00
                               Iterations  = 692
                                  Total H  = 1.110124e+02
                                  Total O  = 5.550673e+01

----------------------------Distribution of species----------------------------

                                               Log       Log       Log    mole V
   Species          Molality    Activity  Molality  Activity     Gamma   cm³/mol

   H+              1.751e-04   1.711e-04    -3.757    -3.767    -0.010      0.00
   OH-             6.057e-11   5.915e-11   -10.218   -10.228    -0.010     -4.12
   H2O             5.551e+01   1.000e+00     1.744    -0.000     0.000     18.07
Fe(2)         1.332e-06
   Fe+2            1.307e-06   1.190e-06    -5.884    -5.925    -0.041    -22.17
   FeSO4           2.573e-08   2.573e-08    -7.590    -7.590     0.000     18.97
   FeHSO4+         2.964e-11   2.894e-11   -10.528   -10.538    -0.010     (0)  
   FeOH+           2.251e-12   2.199e-12   -11.648   -11.658    -0.010     (0)  
   Fe(OH)2         1.094e-19   1.094e-19   -18.961   -18.961     0.000     (0)  
   Fe(OH)3-        2.431e-26   2.375e-26   -25.614   -25.624    -0.010     (0)  
   Fe(HS)2         0.000e+00   0.000e+00  -208.422  -208.422     0.000     (0)  
   Fe(HS)3-        0.000e+00   0.000e+00  -312.098  -312.108    -0.010     (0)  
Fe(3)         6.692e-05
   Fe(OH)2+        4.206e-05   4.108e-05    -4.376    -4.386    -0.010     (0)  
   FeOH+2          2.333e-05   2.123e-05    -4.632    -4.673    -0.041     (0)  
   FeSO4+          7.682e-07   7.503e-07    -6.115    -6.125    -0.010     (0)  
   Fe+3            6.917e-07   5.627e-07    -6.160    -6.250    -0.090     (0)  
   Fe(OH)3         3.093e-08   3.093e-08    -7.510    -7.510     0.000     (0)  
   Fe2(OH)2+4      1.773e-08   1.213e-08    -7.751    -7.916    -0.165     (0)  
   Fe(SO4)2-       2.044e-09   1.996e-09    -8.690    -8.700    -0.010     (0)  
   FeHSO4+2        3.780e-10   3.438e-10    -9.423    -9.464    -0.041     (0)  
   Fe3(OH)4+5      1.883e-10   1.041e-10    -9.725    -9.982    -0.257     (0)  
   Fe(OH)4-        1.688e-13   1.649e-13   -12.773   -12.783    -0.010     (0)  
H(0)          1.691e-36
   H2              8.453e-37   8.454e-37   -36.073   -36.073     0.000     28.61
O(0)          1.167e-20
   O2              5.833e-21   5.833e-21   -20.234   -20.234     0.000     30.40
S(-2)         0.000e+00
   H2S             0.000e+00   0.000e+00  -102.549  -102.549     0.000     37.16
   HS-             0.000e+00   0.000e+00  -105.713  -105.724    -0.010     20.59
   S-2             0.000e+00   0.000e+00  -114.834  -114.875    -0.041     (0)  
   Fe(HS)2         0.000e+00   0.000e+00  -208.422  -208.422     0.000     (0)  
   Fe(HS)3-        0.000e+00   0.000e+00  -312.098  -312.108    -0.010     (0)  
S(6)          1.365e-04
   SO4-2           1.336e-04   1.216e-04    -3.874    -3.915    -0.041     14.47
   HSO4-           2.072e-06   2.023e-06    -5.684    -5.694    -0.010     40.27
   FeSO4+          7.682e-07   7.503e-07    -6.115    -6.125    -0.010     (0)  
   FeSO4           2.573e-08   2.573e-08    -7.590    -7.590     0.000     18.97
   Fe(SO4)2-       2.044e-09   1.996e-09    -8.690    -8.700    -0.010     (0)  
   FeHSO4+2        3.780e-10   3.438e-10    -9.423    -9.464    -0.041     (0)  
   FeHSO4+         2.964e-11   2.894e-11   -10.528   -10.538    -0.010     (0)  

------------------------------Saturation indices-------------------------------

  Phase               SI** log IAP   log K(298 K,   1 atm)

  Fe(OH)3(a)        0.16      5.05    4.89  Fe(OH)3
  FeS(ppt)       -103.97   -107.88   -3.92  FeS
  Goethite          6.05      5.05   -1.00  FeOOH
  H2(g)           -32.97    -36.07   -3.10  H2
  H2O(g)           -1.50     -0.00    1.50  H2O
  H2S(g)         -101.50   -109.49   -7.99  H2S
  Hematite         14.11     10.10   -4.01  Fe2O3
  Mackinawite    -103.23   -107.88   -4.65  FeS
  Melanterite      -7.63     -9.84   -2.21  FeSO4:7H2O
  O2(g)           -17.34    -20.23   -2.89  O2
  Pyrite         -165.97   -184.45  -18.48  FeS2
  Sulfur          -74.51    -69.63    4.88  S

**For a gas, SI = log10(fugacity). Fugacity = pressure * phi / 1 atm.
  For ideal gases, phi = 1.

Reaction step 2.

Using solution 1.	
Using kinetics 1.	

Kinetics 1.	

	Time step: 1.05e+07 seconds  (Incremented time: 2.1e+07 seconds)

	Rate name       Delta Moles Total Moles   Reactant        Coefficient

	Pyrite           -1.341e-09   9.997e-01   FeS2                      1

-----------------------------Solution composition------------------------------

	Elements           Molality       Moles

	Fe                6.825e-05   6.825e-05
	S                 1.365e-04   1.365e-04

----------------------------Description of solution----------------------------

                                       pH  =   3.767      Charge balance
                                       pe  =  12.688      Adjusted to redox equilibrium
       Specific Conductance (µS/cm, 25°C)  = 81
                          Density (g/cm³)  =   0.99706
                               Volume (L)  =   1.00297
                        Activity of water  =   1.000
                           Ionic strength  =   4.298e-04
                       Mass of water (kg)  =   1.000e+00
                 Total alkalinity (eq/kg)  =  -2.034e-04
                    Total carbon (mol/kg)  =   0.000e+00
                       Total CO2 (mol/kg)  =   0.000e+00
                         Temperature (°C)  =  25.00
                  Electrical balance (eq)  =  -1.216e-09
 Percent error, 100*(Cat-|An|)/(Cat+|An|)  =  -0.00
                               Iterations  =   2
                                  Total H  = 1.110124e+02
                                  Total O  = 5.550673e+01

----------------------------Distribution of species----------------------------

                                               Log       Log       Log    mole V
   Species          Molality    Activity  Molality  Activity     Gamma   cm³/mol

   H+              1.751e-04   1.711e-04    -3.757    -3.767    -0.010      0.00
   OH-             6.058e-11   5.915e-11   -10.218   -10.228    -0.010     -4.12
   H2O             5.551e+01   1.000e+00     1.744    -0.000     0.000     18.07
Fe(2)         1.352e-06
   Fe+2            1.326e-06   1.208e-06    -5.877    -5.918    -0.041    -22.17
   FeSO4           2.612e-08   2.612e-08    -7.583    -7.583     0.000     18.97
   FeHSO4+         3.008e-11   2.938e-11   -10.522   -10.532    -0.010     (0)  
   FeOH+           2.285e-12   2.232e-12   -11.641   -11.651    -0.010     (0)  
   Fe(OH)2         1.110e-19   1.110e-19   -18.955   -18.955     0.000     (0)  
   Fe(OH)3-        2.468e-26   2.411e-26   -25.608   -25.618    -0.010     (0)  
   Fe(HS)2         0.000e+00   0.000e+00  -208.309  -208.309     0.000     (0)  
   Fe(HS)3-        0.000e+00   0.000e+00  -311.932  -311.942    -0.010     (0)  
Fe(3)         6.690e-05
   Fe(OH)2+        4.205e-05   4.107e-05    -4.376    -4.386    -0.010     (0)  
   FeOH+2          2.332e-05   2.122e-05    -4.632    -4.673    -0.041     (0)  
   FeSO4+          7.679e-07   7.500e-07    -6.115    -6.125    -0.010     (0)  
   Fe+3            6.914e-07   5.625e-07    -6.160    -6.250    -0.090     (0)  
   Fe(OH)3         3.092e-08   3.092e-08    -7.510    -7.510     0.000     (0)  
   Fe2(OH)2+4      1.772e-08   1.212e-08    -7.752    -7.916    -0.165     (0)  
   Fe(SO4)2-       2.043e-09   1.996e-09    -8.690    -8.700    -0.010     (0)  
   FeHSO4+2        3.778e-10   3.437e-10    -9.423    -9.464    -0.041     (0)  
   Fe3(OH)4+5      1.882e-10   1.040e-10    -9.725    -9.983    -0.257     (0)  
   Fe(OH)4-        1.687e-13   1.648e-13   -12.773   -12.783    -0.010     (0)  
H(0)          1.743e-36
   H2              8.715e-37   8.716e-37   -36.060   -36.060     0.000     28.61
O(0)          1.097e-20
   O2              5.487e-21   5.487e-21   -20.261   -20.261     0.000     30.40
S(-2)         0.000e+00
   H2S             0.000e+00   0.000e+00  -102.496  -102.496     0.000     37.16
   HS-             0.000e+00   0.000e+00  -105.660  -105.670    -0.010     20.59
   S-2             0.000e+00   0.000e+00  -114.781  -114.822    -0.041     (0)  
   Fe(HS)2         0.000e+00   0.000e+00  -208.309  -208.309     0.000     (0)  
   Fe(HS)3-        0.000e+00   0.000e+00  -311.932  -311.942    -0.010     (0)  
S(6)          1.365e-04
   SO4-2           1.336e-04   1.216e-04    -3.874    -3.915    -0.041     14.47
   HSO4-           2.072e-06   2.023e-06    -5.684    -5.694    -0.010     40.27
   FeSO4+          7.679e-07   7.500e-07    -6.115    -6.125    -0.010     (0)  
   FeSO4           2.612e-08   2.612e-08    -7.583    -7.583     0.000     18.97
   Fe(SO4)2-       2.043e-09   1.996e-09    -8.690    -8.700    -0.010     (0)  
   FeHSO4+2        3.778e-10   3.437e-10    -9.423    -9.464    -0.041     (0)  
   FeHSO4+         3.008e-11   2.938e-11   -10.522   -10.532    -0.010     (0)  

------------------------------Saturation indices-------------------------------

  Phase               SI** log IAP   log K(298 K,   1 atm)

  Fe(OH)3(a)        0.16      5.05    4.89  Fe(OH)3
  FeS(ppt)       -103.91   -107.82   -3.92  FeS
  Goethite          6.05      5.05   -1.00  FeOOH
  H2(g)           -32.96    -36.06   -3.10  H2
  H2O(g)           -1.50     -0.00    1.50  H2O
  H2S(g)         -101.44   -109.44   -7.99  H2S
  Hematite         14.11     10.10   -4.01  Fe2O3
  Mackinawite    -103.17   -107.82   -4.65  FeS
  Melanterite      -7.62     -9.83   -2.21  FeSO4:7H2O
  O2(g)           -17.37    -20.26   -2.89  O2
  Pyrite         -165.87   -184.35  -18.48  FeS2
  Sulfur          -74.47    -69.59    4.88  S

**For a gas, SI = log10(fugacity). Fugacity = pressure * phi / 1 atm.
  For ideal gases, phi = 1.

Reaction step 3.

Using solution 1.	
Using kinetics 1.	

Kinetics 1.	

	Time step: 1.05e+07 seconds  (Incremented time: 3.15e+07 seconds)

	Rate name       Delta Moles Total Moles   Reactant        Coefficient

	Pyrite           -1.300e-09   9.997e-01   FeS2                      1

-----------------------------Solution composition------------------------------

	Elements           Molality       Moles

	Fe                6.825e-05   6.825e-05
	S                 1.365e-04   1.365e-04

----------------------------Description of solution----------------------------

                                       pH  =   3.767      Charge balance
                                       pe  =  12.682      Adjusted to redox equilibrium
       Specific Conductance (µS/cm, 25°C)  = 81
                          Density (g/cm³)  =   0.99706
                               Volume (L)  =   1.00297
                        Activity of water  =   1.000
                           Ionic strength  =   4.298e-04
                       Mass of water (kg)  =   1.000e+00
                 Total alkalinity (eq/kg)  =  -2.034e-04
                    Total carbon (mol/kg)  =   0.000e+00
                       Total CO2 (mol/kg)  =   0.000e+00
                         Temperature (°C)  =  25.00
                  Electrical balance (eq)  =  -1.216e-09
 Percent error, 100*(Cat-|An|)/(Cat+|An|)  =  -0.00
                               Iterations  =   2
                                  Total H  = 1.110124e+02
                                  Total O  = 5.550673e+01

----------------------------Distribution of species----------------------------

                                               Log       Log       Log    mole V
   Species          Molality    Activity  Molality  Activity     Gamma   cm³/mol

   H+              1.751e-04   1.711e-04    -3.757    -3.767    -0.010      0.00
   OH-             6.058e-11   5.916e-11   -10.218   -10.228    -0.010     -4.12
   H2O             5.551e+01   1.000e+00     1.744    -0.000     0.000     18.07
Fe(2)         1.372e-06
   Fe+2            1.345e-06   1.225e-06    -5.871    -5.912    -0.041    -22.17
   FeSO4           2.649e-08   2.650e-08    -7.577    -7.577     0.000     18.97
   FeHSO4+         3.051e-11   2.980e-11   -10.515   -10.526    -0.010     (0)  
   FeOH+           2.318e-12   2.264e-12   -11.635   -11.645    -0.010     (0)  
   Fe(OH)2         1.126e-19   1.126e-19   -18.948   -18.948     0.000     (0)  
   Fe(OH)3-        2.504e-26   2.446e-26   -25.601   -25.612    -0.010     (0)  
   Fe(HS)2         0.000e+00   0.000e+00  -208.201  -208.201     0.000     (0)  
   Fe(HS)3-        0.000e+00   0.000e+00  -311.774  -311.784    -0.010     (0)  
Fe(3)         6.688e-05
   Fe(OH)2+        4.204e-05   4.106e-05    -4.376    -4.387    -0.010     (0)  
   FeOH+2          2.331e-05   2.122e-05    -4.632    -4.673    -0.041     (0)  
   FeSO4+          7.677e-07   7.498e-07    -6.115    -6.125    -0.010     (0)  
   Fe+3            6.912e-07   5.623e-07    -6.160    -6.250    -0.090     (0)  
   Fe(OH)3         3.091e-08   3.092e-08    -7.510    -7.510     0.000     (0)  
   Fe2(OH)2+4      1.770e-08   1.212e-08    -7.752    -7.917    -0.165     (0)  
   Fe(SO4)2-       2.043e-09   1.995e-09    -8.690    -8.700    -0.010     (0)  
   FeHSO4+2        3.777e-10   3.435e-10    -9.423    -9.464    -0.041     (0)  
   Fe3(OH)4+5      1.880e-10   1.040e-10    -9.726    -9.983    -0.257     (0)  
   Fe(OH)4-        1.687e-13   1.648e-13   -12.773   -12.783    -0.010     (0)  
H(0)          1.795e-36
   H2              8.974e-37   8.975e-37   -36.047   -36.047     0.000     28.61
O(0)          1.035e-20
   O2              5.175e-21   5.176e-21   -20.286   -20.286     0.000     30.40
S(-2)         0.000e+00
   H2S             0.000e+00   0.000e+00  -102.445  -102.445     0.000     37.16
   HS-             0.000e+00   0.000e+00  -105.609  -105.620    -0.010     20.59
   S-2             0.000e+00   0.000e+00  -114.730  -114.771    -0.041     (0)  
   Fe(HS)2         0.000e+00   0.000e+00  -208.201  -208.201     0.000     (0)  
   Fe(HS)3-        0.000e+00   0.000e+00  -311.774  -311.784    -0.010     (0)  
S(6)          1.365e-04
   SO4-2           1.336e-04   1.216e-04    -3.874    -3.915    -0.041     14.47
   HSO4-           2.072e-06   2.023e-06    -5.684    -5.694    -0.010     40.27
   FeSO4+          7.677e-07   7.498e-07    -6.115    -6.125    -0.010     (0)  
   FeSO4           2.649e-08   2.650e-08    -7.577    -7.577     0.000     18.97
   Fe(SO4)2-       2.043e-09   1.995e-09    -8.690    -8.700    -0.010     (0)  
   FeHSO4+2        3.777e-10   3.435e-10    -9.423    -9.464    -0.041     (0)  
   FeHSO4+         3.051e-11   2.980e-11   -10.515   -10.526    -0.010     (0)  

------------------------------Saturation indices-------------------------------

  Phase               SI** log IAP   log K(298 K,   1 atm)

  Fe(OH)3(a)        0.16      5.05    4.89  Fe(OH)3
  FeS(ppt)       -103.85   -107.76   -3.92  FeS
  Goethite          6.05      5.05   -1.00  FeOOH
  H2(g)           -32.95    -36.05   -3.10  H2
  H2O(g)           -1.50     -0.00    1.50  H2O
  H2S(g)         -101.39   -109.39   -7.99  H2S
  Hematite         14.11     10.10   -4.01  Fe2O3
  Mackinawite    -103.12   -107.76   -4.65  FeS
  Melanterite      -7.62     -9.83   -2.21  FeSO4:7H2O
  O2(g)           -17.39    -20.29   -2.89  O2
  Pyrite         -165.78   -184.25  -18.48  FeS2
  Sulfur          -74.43    -69.55    4.88  S

**For a gas, SI = log10(fugacity). Fugacity = pressure * phi / 1 atm.
  For ideal gases, phi = 1.

------------------
End of simulation.
------------------

------------------------------------
Reading input data for simulation 5.
------------------------------------

------------------------------
End of Run after 0.19 Seconds.
------------------------------

