   Input file: current2
  Output file: current2.out
Database file: ../database/wateq4f.dat

------------------
Reading data base.
------------------

	SOLUTION_MASTER_SPECIES
	SOLUTION_SPECIES
	PHASES
	EXCHANGE_MASTER_SPECIES
	EXCHANGE_SPECIES
	SURFACE_MASTER_SPECIES
	SURFACE_SPECIES
	RATES
	END
------------------------------------
Reading input data for simulation 1.
------------------------------------

	DATABASE ../database/wateq4f.dat
	SELECTED_OUTPUT 101
	    file                 current2_101.sel
	USER_PUNCH 101
	    headings Mu SC
	    start
	EQUILIBRIUM_PHASES 0
	 H2(g) 0 0 # for bubbling out H2
	EQUILIBRIUM_PHASES 26
	 O2(g) 0 0 # ... and O2
	SOLUTION 0
	water 1e5 # kg water in a cell, constant boundary solution
	pH 7 charge
	 Cl 500
	 Na 525
	 K 83
	SOLUTION 1-10
	water 1e-5
	pH 7 charge
	 Cl 200
	 Na 100
	 K 200
	SOLUTION 11-15
	water 16e-5
	pH 7 charge
	 Cl 200
	 Na 100
	 K 200
	SOLUTION 16-25
	water 1e-5
	pH 7 charge
	 Cl 200
	 Na 100
	 K 200
	SOLUTION 26
	water 1e5
	pH 7 charge
	 Cl 0
	 Na 25
	 K 83
	potential 3
	END
-------------------------------------------
Beginning of initial solution calculations.
-------------------------------------------

Initial solution 0.	

-----------------------------Solution composition------------------------------

	Elements           Molality       Moles

	Cl                5.000e-01   5.000e+04
	K                 8.300e-02   8.300e+03
	Na                5.250e-01   5.250e+04

----------------------------Description of solution----------------------------

                                       pH  =  12.832      Charge balance
                                       pe  =   4.000    
                        Activity of water  =   0.979
                           Ionic strength  =   6.080e-01
                       Mass of water (kg)  =   1.000e+05
                 Total alkalinity (eq/kg)  =   1.080e-01
                    Total carbon (mol/kg)  =   0.000e+00
                       Total CO2 (mol/kg)  =   0.000e+00
                         Temperature (°C)  =  25.00
                  Electrical balance (eq)  =  -4.929e-10
 Percent error, 100*(Cat-|An|)/(Cat+|An|)  =  -0.00
                               Iterations  =   9
                                  Total H  = 1.111204e+07
                                  Total O  = 5.561422e+06

----------------------------Distribution of species----------------------------

                                               Log       Log       Log    mole V
   Species          Molality    Activity  Molality  Activity     Gamma   cm³/mol

   OH-             1.080e-01   6.664e-02    -0.967    -1.176    -0.210     (0)  
   H+              1.941e-13   1.471e-13   -12.712   -12.832    -0.120      0.00
   H2O             5.551e+01   9.793e-01     1.744    -0.009     0.000     18.07
Cl            5.000e-01
   Cl-             5.000e-01   3.151e-01    -0.301    -0.502    -0.201     (0)  
H(0)          2.664e-37
   H2              1.332e-37   1.532e-37   -36.875   -36.815     0.061     (0)  
K             8.300e-02
   K+              8.300e-02   5.230e-02    -1.081    -1.281    -0.201     (0)  
Na            5.250e-01
   Na+             5.250e-01   3.710e-01    -0.280    -0.431    -0.151     (0)  
O(0)          2.961e-19
   O2              1.480e-19   1.703e-19   -18.830   -18.769     0.061     (0)  

------------------------------Saturation indices-------------------------------

  Phase               SI** log IAP   log K(298 K,   1 atm)

  H2(g)           -33.66    -36.81   -3.15  H2
  H2O(g)           -1.52     -0.01    1.51  H2O
  Halite           -2.51     -0.93    1.58  NaCl
  O2(g)           -15.88    -18.77   -2.89  O2

**For a gas, SI = log10(fugacity). Fugacity = pressure * phi / 1 atm.
  For ideal gases, phi = 1.

Initial solution 1.	

-----------------------------Solution composition------------------------------

	Elements           Molality       Moles

	Cl                2.000e-01   2.000e-06
	K                 2.000e-01   2.000e-06
	Na                1.000e-01   1.000e-06

----------------------------Description of solution----------------------------

                                       pH  =  12.833      Charge balance
                                       pe  =   4.000    
                        Activity of water  =   0.990
                           Ionic strength  =   3.000e-01
                       Mass of water (kg)  =   1.000e-05
                 Total alkalinity (eq/kg)  =   1.000e-01
                    Total carbon (mol/kg)  =   0.000e+00
                       Total CO2 (mol/kg)  =   0.000e+00
                         Temperature (°C)  =  25.00
                  Electrical balance (eq)  =  -5.082e-20
 Percent error, 100*(Cat-|An|)/(Cat+|An|)  =  -0.00
                               Iterations  =   9
                                  Total H  = 1.111124e-03
                                  Total O  = 5.560622e-04

----------------------------Distribution of species----------------------------

                                               Log       Log       Log    mole V
   Species          Molality    Activity  Molality  Activity     Gamma   cm³/mol

   OH-             1.000e-01   6.739e-02    -1.000    -1.171    -0.171     (0)  
   H+              1.880e-13   1.470e-13   -12.726   -12.833    -0.107      0.00
   H2O             5.551e+01   9.898e-01     1.744    -0.004     0.000     18.07
Cl            2.000e-01
   Cl-             2.000e-01   1.362e-01    -0.699    -0.866    -0.167     (0)  
H(0)          2.857e-37
   H2              1.428e-37   1.531e-37   -36.845   -36.815     0.030     (0)  
K             2.000e-01
   K+              2.000e-01   1.362e-01    -0.699    -0.866    -0.167     (0)  
Na            1.000e-01
   Na+             1.000e-01   7.245e-02    -1.000    -1.140    -0.140     (0)  
O(0)          3.254e-19
   O2              1.627e-19   1.743e-19   -18.789   -18.759     0.030     (0)  

------------------------------Saturation indices-------------------------------

  Phase               SI** log IAP   log K(298 K,   1 atm)

  H2(g)           -33.67    -36.82   -3.15  H2
  H2O(g)           -1.51     -0.00    1.51  H2O
  Halite           -3.59     -2.01    1.58  NaCl
  O2(g)           -15.87    -18.76   -2.89  O2

**For a gas, SI = log10(fugacity). Fugacity = pressure * phi / 1 atm.
  For ideal gases, phi = 1.

Initial solution 11.	

-----------------------------Solution composition------------------------------

	Elements           Molality       Moles

	Cl                2.000e-01   3.200e-05
	K                 2.000e-01   3.200e-05
	Na                1.000e-01   1.600e-05

----------------------------Description of solution----------------------------

                                       pH  =  12.833      Charge balance
                                       pe  =   4.000    
                        Activity of water  =   0.990
                           Ionic strength  =   3.000e-01
                       Mass of water (kg)  =   1.600e-04
                 Total alkalinity (eq/kg)  =   1.000e-01
                    Total carbon (mol/kg)  =   0.000e+00
                       Total CO2 (mol/kg)  =   0.000e+00
                         Temperature (°C)  =  25.00
                  Electrical balance (eq)  =  -8.132e-19
 Percent error, 100*(Cat-|An|)/(Cat+|An|)  =  -0.00
                               Iterations  =   9
                                  Total H  = 1.777799e-02
                                  Total O  = 8.896995e-03

----------------------------Distribution of species----------------------------

                                               Log       Log       Log    mole V
   Species          Molality    Activity  Molality  Activity     Gamma   cm³/mol

   OH-             1.000e-01   6.739e-02    -1.000    -1.171    -0.171     (0)  
   H+              1.880e-13   1.470e-13   -12.726   -12.833    -0.107      0.00
   H2O             5.551e+01   9.898e-01     1.744    -0.004     0.000     18.07
Cl            2.000e-01
   Cl-             2.000e-01   1.362e-01    -0.699    -0.866    -0.167     (0)  
H(0)          2.857e-37
   H2              1.428e-37   1.531e-37   -36.845   -36.815     0.030     (0)  
K             2.000e-01
   K+              2.000e-01   1.362e-01    -0.699    -0.866    -0.167     (0)  
Na            1.000e-01
   Na+             1.000e-01   7.245e-02    -1.000    -1.140    -0.140     (0)  
O(0)          3.254e-19
   O2              1.627e-19   1.743e-19   -18.789   -18.759     0.030     (0)  

------------------------------Saturation indices-------------------------------

  Phase               SI** log IAP   log K(298 K,   1 atm)

  H2(g)           -33.67    -36.82   -3.15  H2
  H2O(g)           -1.51     -0.00    1.51  H2O
  Halite           -3.59     -2.01    1.58  NaCl
  O2(g)           -15.87    -18.76   -2.89  O2

**For a gas, SI = log10(fugacity). Fugacity = pressure * phi / 1 atm.
  For ideal gases, phi = 1.

Initial solution 16.	

-----------------------------Solution composition------------------------------

	Elements           Molality       Moles

	Cl                2.000e-01   2.000e-06
	K                 2.000e-01   2.000e-06
	Na                1.000e-01   1.000e-06

----------------------------Description of solution----------------------------

                                       pH  =  12.833      Charge balance
                                       pe  =   4.000    
                        Activity of water  =   0.990
                           Ionic strength  =   3.000e-01
                       Mass of water (kg)  =   1.000e-05
                 Total alkalinity (eq/kg)  =   1.000e-01
                    Total carbon (mol/kg)  =   0.000e+00
                       Total CO2 (mol/kg)  =   0.000e+00
                         Temperature (°C)  =  25.00
                  Electrical balance (eq)  =  -5.082e-20
 Percent error, 100*(Cat-|An|)/(Cat+|An|)  =  -0.00
                               Iterations  =   9
                                  Total H  = 1.111124e-03
                                  Total O  = 5.560622e-04

----------------------------Distribution of species----------------------------

                                               Log       Log       Log    mole V
   Species          Molality    Activity  Molality  Activity     Gamma   cm³/mol

   OH-             1.000e-01   6.739e-02    -1.000    -1.171    -0.171     (0)  
   H+              1.880e-13   1.470e-13   -12.726   -12.833    -0.107      0.00
   H2O             5.551e+01   9.898e-01     1.744    -0.004     0.000     18.07
Cl            2.000e-01
   Cl-             2.000e-01   1.362e-01    -0.699    -0.866    -0.167     (0)  
H(0)          2.857e-37
   H2              1.428e-37   1.531e-37   -36.845   -36.815     0.030     (0)  
K             2.000e-01
   K+              2.000e-01   1.362e-01    -0.699    -0.866    -0.167     (0)  
Na            1.000e-01
   Na+             1.000e-01   7.245e-02    -1.000    -1.140    -0.140     (0)  
O(0)          3.254e-19
   O2              1.627e-19   1.743e-19   -18.789   -18.759     0.030     (0)  

------------------------------Saturation indices-------------------------------

  Phase               SI** log IAP   log K(298 K,   1 atm)

  H2(g)           -33.67    -36.82   -3.15  H2
  H2O(g)           -1.51     -0.00    1.51  H2O
  Halite           -3.59     -2.01    1.58  NaCl
  O2(g)           -15.87    -18.76   -2.89  O2

**For a gas, SI = log10(fugacity). Fugacity = pressure * phi / 1 atm.
  For ideal gases, phi = 1.

Initial solution 26.	

-----------------------------Solution composition------------------------------

	Elements           Molality       Moles

	K                 8.300e-02   8.300e+03
	Na                2.500e-02   2.500e+03

----------------------------Description of solution----------------------------

                                       pH  =  12.913      Charge balance
                                       pe  =   4.000    
                        Activity of water  =   0.996
                           Ionic strength  =   1.080e-01
                       Mass of water (kg)  =   1.000e+05
                 Total alkalinity (eq/kg)  =   1.080e-01
                    Total carbon (mol/kg)  =   0.000e+00
                       Total CO2 (mol/kg)  =   0.000e+00
                         Temperature (°C)  =  25.00
                  Electrical balance (eq)  =  -6.599e-09
 Percent error, 100*(Cat-|An|)/(Cat+|An|)  =  -0.00
                               Iterations  =  10
                                  Total H  = 1.111204e+07
                                  Total O  = 5.561422e+06

----------------------------Distribution of species----------------------------

                                               Log       Log       Log    mole V
   Species          Molality    Activity  Molality  Activity     Gamma   cm³/mol

   OH-             1.080e-01   8.162e-02    -0.967    -1.088    -0.122     (0)  
   H+              1.486e-13   1.222e-13   -12.828   -12.913    -0.085      0.00
   H2O             5.551e+01   9.963e-01     1.744    -0.002     0.000     18.07
H(0)          2.063e-37
   H2              1.031e-37   1.057e-37   -36.987   -36.976     0.011     (0)  
K             8.300e-02
   K+              8.300e-02   6.296e-02    -1.081    -1.201    -0.120     (0)  
Na            2.500e-02
   Na+             2.500e-02   1.945e-02    -1.602    -1.711    -0.109     (0)  
O(0)          7.222e-19
   O2              3.611e-19   3.702e-19   -18.442   -18.432     0.011     (0)  

------------------------------Saturation indices-------------------------------

  Phase               SI** log IAP   log K(298 K,   1 atm)

  H2(g)           -33.83    -36.98   -3.15  H2
  H2O(g)           -1.51     -0.00    1.51  H2O
  O2(g)           -15.54    -18.43   -2.89  O2

**For a gas, SI = log10(fugacity). Fugacity = pressure * phi / 1 atm.
  For ideal gases, phi = 1.

-----------------------------------------
Beginning of batch-reaction calculations.
-----------------------------------------

Reaction step 1.

Using solution 0.	
Using pure phase assemblage 0.	

-------------------------------Phase assemblage--------------------------------

                                                      Moles in assemblage
Phase               SI  log IAP  log K(T, P)   Initial       Final       Delta

H2(g)           -11.32   -14.47     -3.15    0.000e+00           0   0.000e+00

-----------------------------Solution composition------------------------------

	Elements           Molality       Moles

	Cl                5.000e-01   5.000e+04
	K                 8.300e-02   8.300e+03
	Na                5.250e-01   5.250e+04

----------------------------Description of solution----------------------------

                                       pH  =  12.832      Charge balance
                                       pe  =  -7.172      Adjusted to redox equilibrium
                        Activity of water  =   0.979
                           Ionic strength  =   6.080e-01
                       Mass of water (kg)  =   1.000e+05
                 Total alkalinity (eq/kg)  =   1.080e-01
                    Total carbon (mol/kg)  =   0.000e+00
                       Total CO2 (mol/kg)  =   0.000e+00
                         Temperature (°C)  =  25.00
                  Electrical balance (eq)  =  -4.693e-10
 Percent error, 100*(Cat-|An|)/(Cat+|An|)  =  -0.00
                               Iterations  =  12
                                  Total H  = 1.111204e+07
                                  Total O  = 5.561422e+06

----------------------------Distribution of species----------------------------

                                               Log       Log       Log    mole V
   Species          Molality    Activity  Molality  Activity     Gamma   cm³/mol

   OH-             1.080e-01   6.664e-02    -0.967    -1.176    -0.210     (0)  
   H+              1.941e-13   1.471e-13   -12.712   -12.832    -0.120      0.00
   H2O             5.551e+01   9.793e-01     1.744    -0.009     0.000     18.07
Cl            5.000e-01
   Cl-             5.000e-01   3.151e-01    -0.301    -0.502    -0.201     (0)  
H(0)          5.882e-15
   H2              2.941e-15   3.383e-15   -14.532   -14.471     0.061     (0)  
K             8.300e-02
   K+              8.300e-02   5.230e-02    -1.081    -1.281    -0.201     (0)  
Na            5.250e-01
   Na+             5.250e-01   3.710e-01    -0.280    -0.431    -0.151     (0)  
O(0)          0.000e+00
   O2              0.000e+00   0.000e+00   -63.518   -63.457     0.061     (0)  

------------------------------Saturation indices-------------------------------

  Phase               SI** log IAP   log K(298 K,   1 atm)

  H2(g)           -11.32    -14.47   -3.15  H2
  H2O(g)           -1.52     -0.01    1.51  H2O
  Halite           -2.51     -0.93    1.58  NaCl
  O2(g)           -60.56    -63.46   -2.89  O2

**For a gas, SI = log10(fugacity). Fugacity = pressure * phi / 1 atm.
  For ideal gases, phi = 1.

------------------
End of simulation.
------------------

------------------------------------
Reading input data for simulation 2.
------------------------------------

	TRANSPORT
	cells 25
	lengths 10*1e-4 5*16e-4 10*1e-4
	boundary_conditions 1 1
	multi_d true 1e-9 0.1 0.0 2
	flow_direction diffusion_only
	time_step 10 hour 1
	shifts 100
	punch_frequency 100
	punch_cells 0-26
	print_frequency 100
	print_cells 0
	USER_GRAPH 2 Na, K, Cl and OH concentrations (lines from analytical solution)
WARNING: No dispersivities were read; disp = 0 assumed.
	-headings Na K Cl OH
	-connect_simulations false
	-plot_concentration_vs dist
	-axis_scale x_axis 0 10
	-axis_titles  "Distance in column / mm" "mmol / kgw"
	10 F_RT = 38.921 : c_0 = 525 + 83 : c_L = 25 + 83 : DDc = c_L - c_0 : DDV = 3 : L = 10e-3
	20 aa = F_RT * DDV / log(c_0 / c_L) : x = dist 
	30 x1c = (x / L * DDc + c_0) / (c_0 * c_L^aa - c_L * c_0^aa)
	40 x2c = (x / L * DDc + c_0)^aa / (c_0 * c_L^aa - c_L * c_0^aa)
	50 x1a = (x / L * DDc + c_0) / (c_0 * c_L^-aa - c_L * c_0^-aa)
	60 x2a = (x / L * DDc + c_0)^-aa / (c_0 * c_L^-aa - c_L * c_0^-aa)
	70 c_K = (83 * c_L^aa - 83 * c_0^aa) * x1c - (83 * c_L - 83 * c_0) * x2c
	80 c_Na = (525 * c_L^-aa - 25 * c_0^aa) * x1c - (525 * c_L - 25 * c_0) * x2c
	90  c_Cl = (500 * c_L^-aa - 0 * c_0^-aa) * x1a - (500 * c_L - 0 * c_0) * x2a
	100 c_OH = (108 * c_L^-aa - 108 * c_0^-aa) * x1a - (108 * c_L - 108 * c_0) * x2a
	200 plot_xy x * 1e3, tot("Na") * 1e3,  color = Red, line_width = 0    , symbol = Plus
	210 plot_xy x * 1e3, tot("K") * 1e3,   color = Green, line_width = 0  , symbol = Plus
	220 plot_xy x * 1e3, tot("Cl") * 1e3,  color = Blue, line_width = 0   , symbol = Plus
	230 plot_xy x * 1e3, mol("OH-") * 1e3, color = Orange, line_width = 0 , symbol = Plus 
	240 plot_xy x * 1e3, c_Na,             color = Red, symbol = None     
	250 plot_xy x * 1e3, c_K,              color = Green, symbol = None   
	260 plot_xy x * 1e3, c_Cl,             color = Blue, symbol = None    
	270 plot_xy x * 1e3, c_OH,             color = Orange, symbol = None  
	USER_GRAPH 3 potential
	-headings PHREEQC analytical
	-plot_concentration_vs dist
	-axis_scale x_axis 0 10
	-axis_titles  "Distance in column / mm" "potential / Volt"
	10 F_RT = 38.921 : c_0 = 525 + 83 : c_L = 25 + 83 : DDc = c_L - c_0 : DDV = 3 : L = 10e-3
	20 aa = F_RT * DDV / log(c_0 / c_L) : x = dist 
	30 V_x = log(1 + DDc / c_0 * x / L) / log(c_L / c_0) * DDV
	80 plot_xy x * 1e3, pot_V, color = Red, line_width = 0, symbol = Plus   
	90 plot_xy x * 1e3, V_x, color = Red  , symbol = None
	END
------------------------------------
Beginning of transport calculations.
------------------------------------

-------------------------------
Equilibrating initial solutions
-------------------------------

Using solution 0.	
Using pure phase assemblage 0.	

-------------------------------Phase assemblage--------------------------------

                                                      Moles in assemblage
Phase               SI  log IAP  log K(T, P)   Initial       Final       Delta

H2(g)           -11.32   -14.47     -3.15    0.000e+00               0.000e+00

-----------------------------Solution composition------------------------------

	Elements           Molality       Moles

	Cl                5.000e-01   5.000e+04
	K                 8.300e-02   8.300e+03
	Na                5.250e-01   5.250e+04

----------------------------Description of solution----------------------------

                                       pH  =  12.832      Charge balance
                                       pe  =  -7.172      Adjusted to redox equilibrium
                        Activity of water  =   0.979
                           Ionic strength  =   6.080e-01
                       Mass of water (kg)  =   1.000e+05
                 Total alkalinity (eq/kg)  =   1.080e-01
                    Total carbon (mol/kg)  =   0.000e+00
                       Total CO2 (mol/kg)  =   0.000e+00
                         Temperature (°C)  =  25.00
                  Electrical balance (eq)  =  -4.693e-10
 Percent error, 100*(Cat-|An|)/(Cat+|An|)  =  -0.00
                               Iterations  =  12
                                  Total H  = 1.111204e+07
                                  Total O  = 5.561422e+06

----------------------------Distribution of species----------------------------

                                               Log       Log       Log    mole V
   Species          Molality    Activity  Molality  Activity     Gamma   cm³/mol

   OH-             1.080e-01   6.664e-02    -0.967    -1.176    -0.210     (0)  
   H+              1.941e-13   1.471e-13   -12.712   -12.832    -0.120      0.00
   H2O             5.551e+01   9.793e-01     1.744    -0.009     0.000     18.07
Cl            5.000e-01
   Cl-             5.000e-01   3.151e-01    -0.301    -0.502    -0.201     (0)  
H(0)          5.882e-15
   H2              2.941e-15   3.383e-15   -14.532   -14.471     0.061     (0)  
K             8.300e-02
   K+              8.300e-02   5.230e-02    -1.081    -1.281    -0.201     (0)  
Na            5.250e-01
   Na+             5.250e-01   3.710e-01    -0.280    -0.431    -0.151     (0)  
O(0)          0.000e+00
   O2              0.000e+00   0.000e+00   -63.518   -63.457     0.061     (0)  

------------------------------Saturation indices-------------------------------

  Phase               SI** log IAP   log K(298 K,   1 atm)

  H2(g)           -11.32    -14.47   -3.15  H2
  H2O(g)           -1.52     -0.01    1.51  H2O
  Halite           -2.51     -0.93    1.58  NaCl
  O2(g)           -60.56    -63.46   -2.89  O2

**For a gas, SI = log10(fugacity). Fugacity = pressure * phi / 1 atm.
  For ideal gases, phi = 1.

Transport step 100. Multicomponent diffusion run 163.

Using solution 0.	Solution after simulation 2.
Using pure phase assemblage 0.	Pure-phase assemblage after simulation 2.

-------------------------------Phase assemblage--------------------------------

                                                      Moles in assemblage
Phase               SI  log IAP  log K(T, P)   Initial       Final       Delta

H2(g)            -3.72    -6.87     -3.15    0.000e+00               0.000e+00

-----------------------------Solution composition------------------------------

	Elements           Molality       Moles

	Cl                5.000e-01   5.000e+04
	K                 8.300e-02   8.300e+03
	Na                5.250e-01   5.250e+04

----------------------------Description of solution----------------------------

                                       pH  =  12.832      Charge balance
                                       pe  = -10.975      Adjusted to redox equilibrium
                        Activity of water  =   0.979
                           Ionic strength  =   6.080e-01
                       Mass of water (kg)  =   1.000e+05
                 Total alkalinity (eq/kg)  =   1.080e-01
                    Total carbon (mol/kg)  =   0.000e+00
                       Total CO2 (mol/kg)  =   0.000e+00
                         Temperature (°C)  =  25.00
                  Electrical balance (eq)  =  -5.759e-08
 Percent error, 100*(Cat-|An|)/(Cat+|An|)  =  -0.00
                               Iterations  =   1
                                  Total H  = 1.111204e+07
                                  Total O  = 5.561422e+06

----------------------------Distribution of species----------------------------

                                               Log       Log       Log    mole V
   Species          Molality    Activity  Molality  Activity     Gamma   cm³/mol

   OH-             1.080e-01   6.664e-02    -0.967    -1.176    -0.210     (0)  
   H+              1.941e-13   1.471e-13   -12.712   -12.832    -0.120      0.00
   H2O             5.551e+01   9.793e-01     1.744    -0.009     0.000     18.07
Cl            5.000e-01
   Cl-             5.000e-01   3.151e-01    -0.301    -0.502    -0.201     (0)  
H(0)          2.370e-07
   H2              1.185e-07   1.363e-07    -6.926    -6.866     0.061     (0)  
K             8.300e-02
   K+              8.300e-02   5.230e-02    -1.081    -1.281    -0.201     (0)  
Na            5.250e-01
   Na+             5.250e-01   3.710e-01    -0.280    -0.431    -0.151     (0)  
O(0)          0.000e+00
   O2              0.000e+00   0.000e+00   -78.728   -78.667     0.061     (0)  

------------------------------Saturation indices-------------------------------

  Phase               SI** log IAP   log K(298 K,   1 atm)

  H2(g)            -3.72     -6.87   -3.15  H2
  H2O(g)           -1.52     -0.01    1.51  H2O
  Halite           -2.51     -0.93    1.58  NaCl
  O2(g)           -75.77    -78.67   -2.89  O2

**For a gas, SI = log10(fugacity). Fugacity = pressure * phi / 1 atm.
  For ideal gases, phi = 1.

------------------
End of simulation.
------------------

------------------------------------
Reading input data for simulation 3.
------------------------------------

-------------------------------
End of Run after 42.96 Seconds.
-------------------------------

