   Input file: current_analytical
  Output file: current_analytical.out
Database file: ../database/wateq4f.dat

------------------
Reading data base.
------------------

	SOLUTION_MASTER_SPECIES
	SOLUTION_SPECIES
	PHASES
	EXCHANGE_MASTER_SPECIES
	EXCHANGE_SPECIES
	SURFACE_MASTER_SPECIES
	SURFACE_SPECIES
	RATES
	END
------------------------------------
Reading input data for simulation 1.
------------------------------------

	DATABASE ../database/wateq4f.dat
	SELECTED_OUTPUT 101
	    file                 current_analytical_101.sel
	USER_PUNCH 101
	    headings Mu SC
	    start
	10 PUNCH STR_F$(MU, 20, 12)
	20 PUNCH STR_F$(SC, 20, 10)
	    end
	EQUILIBRIUM_PHASES 0
	 H2(g) 0 0 # for bubbling out H2
	EQUILIBRIUM_PHASES 101
	 O2(g) 0 0 # ... and O2
	SOLUTION 0
	water 1e5
	pH 7 charge
	 Cl 500
	 Na 525
	 K 83
	SOLUTION 1-100
	water 1e-5 # kg water in a cell
	pH 7 charge
	 Cl 200
	 Na 100
	 K 200
	SOLUTION 101
	water 1e5
	pH 7 charge
	 Cl 0
	 Na 25
	 K 83
	potential 3
	END
-------------------------------------------
Beginning of initial solution calculations.
-------------------------------------------

Initial solution 0.	

-----------------------------Solution composition------------------------------

	Elements           Molality       Moles

	Cl                5.000e-01   5.000e+04
	K                 8.300e-02   8.300e+03
	Na                5.250e-01   5.250e+04

----------------------------Description of solution----------------------------

                                       pH  =  12.832      Charge balance
                                       pe  =   4.000    
                        Activity of water  =   0.979
                           Ionic strength  =   6.080e-01
                       Mass of water (kg)  =   1.000e+05
                 Total alkalinity (eq/kg)  =   1.080e-01
                    Total carbon (mol/kg)  =   0.000e+00
                       Total CO2 (mol/kg)  =   0.000e+00
                         Temperature (°C)  =  25.00
                  Electrical balance (eq)  =  -4.929e-10
 Percent error, 100*(Cat-|An|)/(Cat+|An|)  =  -0.00
                               Iterations  =   9
                                  Total H  = 1.111204e+07
                                  Total O  = 5.561422e+06

----------------------------Distribution of species----------------------------

                                               Log       Log       Log    mole V
   Species          Molality    Activity  Molality  Activity     Gamma   cm³/mol

   OH-             1.080e-01   6.664e-02    -0.967    -1.176    -0.210     (0)  
   H+              1.941e-13   1.471e-13   -12.712   -12.832    -0.120      0.00
   H2O             5.551e+01   9.793e-01     1.744    -0.009     0.000     18.07
Cl            5.000e-01
   Cl-             5.000e-01   3.151e-01    -0.301    -0.502    -0.201     (0)  
H(0)          2.664e-37
   H2              1.332e-37   1.532e-37   -36.875   -36.815     0.061     (0)  
K             8.300e-02
   K+              8.300e-02   5.230e-02    -1.081    -1.281    -0.201     (0)  
Na            5.250e-01
   Na+             5.250e-01   3.710e-01    -0.280    -0.431    -0.151     (0)  
O(0)          2.961e-19
   O2              1.480e-19   1.703e-19   -18.830   -18.769     0.061     (0)  

------------------------------Saturation indices-------------------------------

  Phase               SI** log IAP   log K(298 K,   1 atm)

  H2(g)           -33.66    -36.81   -3.15  H2
  H2O(g)           -1.52     -0.01    1.51  H2O
  Halite           -2.51     -0.93    1.58  NaCl
  O2(g)           -15.88    -18.77   -2.89  O2

**For a gas, SI = log10(fugacity). Fugacity = pressure * phi / 1 atm.
  For ideal gases, phi = 1.

Initial solution 1.	

-----------------------------Solution composition------------------------------

	Elements           Molality       Moles

	Cl                2.000e-01   2.000e-06
	K                 2.000e-01   2.000e-06
	Na                1.000e-01   1.000e-06

----------------------------Description of solution----------------------------

                                       pH  =  12.833      Charge balance
                                       pe  =   4.000    
                        Activity of water  =   0.990
                           Ionic strength  =   3.000e-01
                       Mass of water (kg)  =   1.000e-05
                 Total alkalinity (eq/kg)  =   1.000e-01
                    Total carbon (mol/kg)  =   0.000e+00
                       Total CO2 (mol/kg)  =   0.000e+00
                         Temperature (°C)  =  25.00
                  Electrical balance (eq)  =  -5.082e-20
 Percent error, 100*(Cat-|An|)/(Cat+|An|)  =  -0.00
                               Iterations  =   9
                                  Total H  = 1.111124e-03
                                  Total O  = 5.560622e-04

----------------------------Distribution of species----------------------------

                                               Log       Log       Log    mole V
   Species          Molality    Activity  Molality  Activity     Gamma   cm³/mol

   OH-             1.000e-01   6.739e-02    -1.000    -1.171    -0.171     (0)  
   H+              1.880e-13   1.470e-13   -12.726   -12.833    -0.107      0.00
   H2O             5.551e+01   9.898e-01     1.744    -0.004     0.000     18.07
Cl            2.000e-01
   Cl-             2.000e-01   1.362e-01    -0.699    -0.866    -0.167     (0)  
H(0)          2.857e-37
   H2              1.428e-37   1.531e-37   -36.845   -36.815     0.030     (0)  
K             2.000e-01
   K+              2.000e-01   1.362e-01    -0.699    -0.866    -0.167     (0)  
Na            1.000e-01
   Na+             1.000e-01   7.245e-02    -1.000    -1.140    -0.140     (0)  
O(0)          3.254e-19
   O2              1.627e-19   1.743e-19   -18.789   -18.759     0.030     (0)  

------------------------------Saturation indices-------------------------------

  Phase               SI** log IAP   log K(298 K,   1 atm)

  H2(g)           -33.67    -36.82   -3.15  H2
  H2O(g)           -1.51     -0.00    1.51  H2O
  Halite           -3.59     -2.01    1.58  NaCl
  O2(g)           -15.87    -18.76   -2.89  O2

**For a gas, SI = log10(fugacity). Fugacity = pressure * phi / 1 atm.
  For ideal gases, phi = 1.

Initial solution 101.	

-----------------------------Solution composition------------------------------

	Elements           Molality       Moles

	K                 8.300e-02   8.300e+03
	Na                2.500e-02   2.500e+03

----------------------------Description of solution----------------------------

                                       pH  =  12.913      Charge balance
                                       pe  =   4.000    
                        Activity of water  =   0.996
                           Ionic strength  =   1.080e-01
                       Mass of water (kg)  =   1.000e+05
                 Total alkalinity (eq/kg)  =   1.080e-01
                    Total carbon (mol/kg)  =   0.000e+00
                       Total CO2 (mol/kg)  =   0.000e+00
                         Temperature (°C)  =  25.00
                  Electrical balance (eq)  =  -6.599e-09
 Percent error, 100*(Cat-|An|)/(Cat+|An|)  =  -0.00
                               Iterations  =  10
                                  Total H  = 1.111204e+07
                                  Total O  = 5.561422e+06

----------------------------Distribution of species----------------------------

                                               Log       Log       Log    mole V
   Species          Molality    Activity  Molality  Activity     Gamma   cm³/mol

   OH-             1.080e-01   8.162e-02    -0.967    -1.088    -0.122     (0)  
   H+              1.486e-13   1.222e-13   -12.828   -12.913    -0.085      0.00
   H2O             5.551e+01   9.963e-01     1.744    -0.002     0.000     18.07
H(0)          2.063e-37
   H2              1.031e-37   1.057e-37   -36.987   -36.976     0.011     (0)  
K             8.300e-02
   K+              8.300e-02   6.296e-02    -1.081    -1.201    -0.120     (0)  
Na            2.500e-02
   Na+             2.500e-02   1.945e-02    -1.602    -1.711    -0.109     (0)  
O(0)          7.222e-19
   O2              3.611e-19   3.702e-19   -18.442   -18.432     0.011     (0)  

------------------------------Saturation indices-------------------------------

  Phase               SI** log IAP   log K(298 K,   1 atm)

  H2(g)           -33.83    -36.98   -3.15  H2
  H2O(g)           -1.51     -0.00    1.51  H2O
  O2(g)           -15.54    -18.43   -2.89  O2

**For a gas, SI = log10(fugacity). Fugacity = pressure * phi / 1 atm.
  For ideal gases, phi = 1.

-----------------------------------------
Beginning of batch-reaction calculations.
-----------------------------------------

Reaction step 1.

Using solution 0.	
Using pure phase assemblage 0.	

-------------------------------Phase assemblage--------------------------------

                                                      Moles in assemblage
Phase               SI  log IAP  log K(T, P)   Initial       Final       Delta

H2(g)           -11.32   -14.47     -3.15    0.000e+00           0   0.000e+00

-----------------------------Solution composition------------------------------

	Elements           Molality       Moles

	Cl                5.000e-01   5.000e+04
	K                 8.300e-02   8.300e+03
	Na                5.250e-01   5.250e+04

----------------------------Description of solution----------------------------

                                       pH  =  12.832      Charge balance
                                       pe  =  -7.172      Adjusted to redox equilibrium
                        Activity of water  =   0.979
                           Ionic strength  =   6.080e-01
                       Mass of water (kg)  =   1.000e+05
                 Total alkalinity (eq/kg)  =   1.080e-01
                    Total carbon (mol/kg)  =   0.000e+00
                       Total CO2 (mol/kg)  =   0.000e+00
                         Temperature (°C)  =  25.00
                  Electrical balance (eq)  =  -4.693e-10
 Percent error, 100*(Cat-|An|)/(Cat+|An|)  =  -0.00
                               Iterations  =  12
                                  Total H  = 1.111204e+07
                                  Total O  = 5.561422e+06

----------------------------Distribution of species----------------------------

                                               Log       Log       Log    mole V
   Species          Molality    Activity  Molality  Activity     Gamma   cm³/mol

   OH-             1.080e-01   6.664e-02    -0.967    -1.176    -0.210     (0)  
   H+              1.941e-13   1.471e-13   -12.712   -12.832    -0.120      0.00
   H2O             5.551e+01   9.793e-01     1.744    -0.009     0.000     18.07
Cl            5.000e-01
   Cl-             5.000e-01   3.151e-01    -0.301    -0.502    -0.201     (0)  
H(0)          5.882e-15
   H2              2.941e-15   3.383e-15   -14.532   -14.471     0.061     (0)  
K             8.300e-02
   K+              8.300e-02   5.230e-02    -1.081    -1.281    -0.201     (0)  
Na            5.250e-01
   Na+             5.250e-01   3.710e-01    -0.280    -0.431    -0.151     (0)  
O(0)          0.000e+00
   O2              0.000e+00   0.000e+00   -63.518   -63.457     0.061     (0)  

------------------------------Saturation indices-------------------------------

  Phase               SI** log IAP   log K(298 K,   1 atm)

  H2(g)           -11.32    -14.47   -3.15  H2
  H2O(g)           -1.52     -0.01    1.51  H2O
  Halite           -2.51     -0.93    1.58  NaCl
  O2(g)           -60.56    -63.46   -2.89  O2

**For a gas, SI = log10(fugacity). Fugacity = pressure * phi / 1 atm.
  For ideal gases, phi = 1.

------------------
End of simulation.
------------------

------------------------------------
Reading input data for simulation 2.
------------------------------------

	SELECTED_OUTPUT 2
	USER_PUNCH 2
	10 PUNCH cell_no, -la("H+")
	END
------------------
End of simulation.
------------------

------------------------------------
Reading input data for simulation 3.
------------------------------------

	TRANSPORT
	cells 100
	lengths 1e-4
	boundary_conditions 1 1
	multi_d true 1e-9 0.1 0.0 2
	flow_direction diffusion_only
	time_step 1 hour 1
	shifts 1
	punch_frequency 1
	punch_cells 0-101
	print_frequency 1
	print_cells 100-101
	USER_GRAPH 2 Na, K, Cl and OH concentrations (lines from analytical solution)
WARNING: Cell-lengths were read for 1 cells. Last value is used till cell 100.
WARNING: No dispersivities were read; disp = 0 assumed.
	-headings Na K Cl OH
	-connect_simulations false
	-plot_concentration_vs dist
	-axis_scale x_axis 0 10
	-axis_titles  "Distance in column / mm" "mmol / kgw"
	10 F_RT = 38.921 : c_0 = 525 + 83 : c_L = 25 + 83 : DDc = c_L - c_0 : DDV = 3 : L = 10e-3
	20 aa = F_RT * DDV / log(c_0 / c_L) : x = dist 
	30 x1c = (x / L * DDc + c_0) / (c_0 * c_L^aa - c_L * c_0^aa)
	40 x2c = (x / L * DDc + c_0)^aa / (c_0 * c_L^aa - c_L * c_0^aa)
	50 x1a = (x / L * DDc + c_0) / (c_0 * c_L^-aa - c_L * c_0^-aa)
	60 x2a = (x / L * DDc + c_0)^-aa / (c_0 * c_L^-aa - c_L * c_0^-aa)
	70 c_K = (83 * c_L^aa - 83 * c_0^aa) * x1c - (83 * c_L - 83 * c_0) * x2c
	80 c_Na = (525 * c_L^-aa - 25 * c_0^aa) * x1c - (525 * c_L - 25 * c_0) * x2c
	90  c_Cl = (500 * c_L^-aa - 0 * c_0^-aa) * x1a - (500 * c_L - 0 * c_0) * x2a
	100 c_OH = (108 * c_L^-aa - 108 * c_0^-aa) * x1a - (108 * c_L - 108 * c_0) * x2a
	200 plot_xy x * 1e3, tot("Na") * 1e3,  color = Red, line_width = 0    , symbol = Plus
	210 plot_xy x * 1e3, tot("K") * 1e3,   color = Green, line_width = 0  , symbol = Plus
	220 plot_xy x * 1e3, tot("Cl") * 1e3,  color = Blue, line_width = 0   , symbol = Plus
	230 plot_xy x * 1e3, mol("OH-") * 1e3, color = Orange, line_width = 0 , symbol = Plus 
	240 plot_xy x * 1e3, c_Na,             color = Red, symbol = None     
	250 plot_xy x * 1e3, c_K,              color = Green, symbol = None   
	260 plot_xy x * 1e3, c_Cl,             color = Blue, symbol = None    
	270 plot_xy x * 1e3, c_OH,             color = Orange, symbol = None  
	USER_GRAPH 3 potential
	-headings analytical PHREEQC
	-plot_concentration_vs dist
	-axis_scale x_axis 0 10
	-axis_titles  "Distance in column / mm" "potential / Volt"
	10 F_RT = 38.921 : c_0 = 525 + 83 : c_L = 25 + 83 : DDc = c_L - c_0 : DDV = 3 : L = 10e-3
	20 aa = F_RT * DDV / log(c_0 / c_L) : x = dist 
	30 V_x = log(1 + DDc / c_0 * x / L) / log(c_L / c_0) * DDV
	80 plot_xy x * 1e3, V_x, color = Red, line_width = 0    , symbol = Plus 
	90 plot_xy x * 1e3, pot_V, color = Red, symbol = None   
	END
------------------------------------
Beginning of transport calculations.
------------------------------------

-------------------------------
Equilibrating initial solutions
-------------------------------

WARNING: USER_PUNCH: Headings count does not match number of calls to PUNCH.

Using solution 100.	

-----------------------------Solution composition------------------------------

	Elements           Molality       Moles

	Cl                2.000e-01   2.000e-06
	K                 2.000e-01   2.000e-06
	Na                1.000e-01   1.000e-06

----------------------------Description of solution----------------------------

                                       pH  =  12.833      Charge balance
                                       pe  =   4.000      Adjusted to redox equilibrium
                        Activity of water  =   0.990
                           Ionic strength  =   3.000e-01
                       Mass of water (kg)  =   1.000e-05
                 Total alkalinity (eq/kg)  =   1.000e-01
                    Total carbon (mol/kg)  =   0.000e+00
                       Total CO2 (mol/kg)  =   0.000e+00
                         Temperature (°C)  =  25.00
                  Electrical balance (eq)  =  -9.404e-19
 Percent error, 100*(Cat-|An|)/(Cat+|An|)  =  -0.00
                               Iterations  =   0
                                  Total H  = 1.111124e-03
                                  Total O  = 5.560622e-04

----------------------------Distribution of species----------------------------

                                               Log       Log       Log    mole V
   Species          Molality    Activity  Molality  Activity     Gamma   cm³/mol

   OH-             1.000e-01   6.739e-02    -1.000    -1.171    -0.171     (0)  
   H+              1.880e-13   1.470e-13   -12.726   -12.833    -0.107      0.00
   H2O             5.551e+01   9.898e-01     1.744    -0.004     0.000     18.07
Cl            2.000e-01
   Cl-             2.000e-01   1.362e-01    -0.699    -0.866    -0.167     (0)  
H(0)          2.857e-37
   H2              1.428e-37   1.531e-37   -36.845   -36.815     0.030     (0)  
K             2.000e-01
   K+              2.000e-01   1.362e-01    -0.699    -0.866    -0.167     (0)  
Na            1.000e-01
   Na+             1.000e-01   7.245e-02    -1.000    -1.140    -0.140     (0)  
O(0)          3.254e-19
   O2              1.627e-19   1.743e-19   -18.789   -18.759     0.030     (0)  

------------------------------Saturation indices-------------------------------

  Phase               SI** log IAP   log K(298 K,   1 atm)

  H2(g)           -33.67    -36.82   -3.15  H2
  H2O(g)           -1.51     -0.00    1.51  H2O
  Halite           -3.59     -2.01    1.58  NaCl
  O2(g)           -15.87    -18.76   -2.89  O2

**For a gas, SI = log10(fugacity). Fugacity = pressure * phi / 1 atm.
  For ideal gases, phi = 1.

Using solution 101.	
Using pure phase assemblage 101.	

-------------------------------Phase assemblage--------------------------------

                                                      Moles in assemblage
Phase               SI  log IAP  log K(T, P)   Initial       Final       Delta

O2(g)           -19.54   -22.43     -2.89    0.000e+00               0.000e+00

-----------------------------Solution composition------------------------------

	Elements           Molality       Moles

	K                 8.300e-02   8.300e+03
	Na                2.500e-02   2.500e+03

----------------------------Description of solution----------------------------

                                       pH  =  12.913      Charge balance
                                       pe  =   3.000      Adjusted to redox equilibrium
                        Activity of water  =   0.996
                           Ionic strength  =   1.080e-01
                       Mass of water (kg)  =   1.000e+05
                 Total alkalinity (eq/kg)  =   1.080e-01
                    Total carbon (mol/kg)  =   0.000e+00
                       Total CO2 (mol/kg)  =   0.000e+00
                         Temperature (°C)  =  25.00
                  Electrical balance (eq)  =  -6.896e-09
 Percent error, 100*(Cat-|An|)/(Cat+|An|)  =  -0.00
                               Iterations  =   1
                                  Total H  = 1.111204e+07
                                  Total O  = 5.561422e+06

----------------------------Distribution of species----------------------------

                                               Log       Log       Log    mole V
   Species          Molality    Activity  Molality  Activity     Gamma   cm³/mol

   OH-             1.080e-01   8.162e-02    -0.967    -1.088    -0.122     (0)  
   H+              1.486e-13   1.222e-13   -12.828   -12.913    -0.085      0.00
   H2O             5.551e+01   9.963e-01     1.744    -0.002     0.000     18.07
H(0)          2.063e-35
   H2              1.031e-35   1.057e-35   -34.987   -34.976     0.011     (0)  
K             8.300e-02
   K+              8.300e-02   6.296e-02    -1.081    -1.201    -0.120     (0)  
Na            2.500e-02
   Na+             2.500e-02   1.945e-02    -1.602    -1.711    -0.109     (0)  
O(0)          7.222e-23
   O2              3.611e-23   3.702e-23   -22.442   -22.432     0.011     (0)  

------------------------------Saturation indices-------------------------------

  Phase               SI** log IAP   log K(298 K,   1 atm)

  H2(g)           -31.83    -34.98   -3.15  H2
  H2O(g)           -1.51     -0.00    1.51  H2O
  O2(g)           -19.54    -22.43   -2.89  O2

**For a gas, SI = log10(fugacity). Fugacity = pressure * phi / 1 atm.
  For ideal gases, phi = 1.

Transport step   1. Multicomponent diffusion run  17.

Using mix 100.	

Mixture 100.	

	  0.000e+00 Solution 99	Solution after simulation 3.                           
	  1.000e+00 Solution 100	Solution after simulation 3.                           
	  0.000e+00 Solution 101	Solution after simulation 3.                           

-----------------------------Solution composition------------------------------

	Elements           Molality       Moles

	Cl                7.804e-02   7.804e-07
	K                 1.056e-01   1.056e-06
	Na                3.181e-02   3.181e-07

----------------------------Description of solution----------------------------

                                       pH  =  12.643      Charge balance
                                       pe  =   6.425      Adjusted to redox equilibrium
                        Activity of water  =   0.995
                           Ionic strength  =   1.374e-01
                       Mass of water (kg)  =   1.000e-05
                 Total alkalinity (eq/kg)  =   5.939e-02
                    Total carbon (mol/kg)  =   0.000e+00
                       Total CO2 (mol/kg)  =   0.000e+00
                         Temperature (°C)  =  25.00
                  Electrical balance (eq)  =  -2.238e-15
 Percent error, 100*(Cat-|An|)/(Cat+|An|)  =  -0.00
                               Iterations  =   2
                                  Total H  = 1.110718e-03
                                  Total O  = 5.556561e-04

----------------------------Distribution of species----------------------------

                                               Log       Log       Log    mole V
   Species          Molality    Activity  Molality  Activity     Gamma   cm³/mol

   OH-             5.939e-02   4.377e-02    -1.226    -1.359    -0.133     (0)  
   H+              2.802e-13   2.277e-13   -12.552   -12.643    -0.090      0.00
   H2O             5.551e+01   9.953e-01     1.744    -0.002     0.000     18.07
Cl            7.804e-02
   Cl-             7.804e-02   5.778e-02    -1.108    -1.238    -0.131     (0)  
H(0)          0.000e+00
   H2              0.000e+00   0.000e+00   -41.298   -41.285     0.014     (0)  
K             1.056e-01
   K+              1.056e-01   7.820e-02    -0.976    -1.107    -0.131     (0)  
Na            3.181e-02
   Na+             3.181e-02   2.431e-02    -1.497    -1.614    -0.117     (0)  
O(0)          2.967e-10
   O2              1.484e-10   1.531e-10    -9.829    -9.815     0.014     (0)  

------------------------------Saturation indices-------------------------------

  Phase               SI** log IAP   log K(298 K,   1 atm)

  H2(g)           -38.13    -41.28   -3.15  H2
  H2O(g)           -1.51     -0.00    1.51  H2O
  Halite           -4.43     -2.85    1.58  NaCl
  O2(g)            -6.92     -9.81   -2.89  O2

**For a gas, SI = log10(fugacity). Fugacity = pressure * phi / 1 atm.
  For ideal gases, phi = 1.

Using solution 101.	Solution after simulation 3.
Using pure phase assemblage 101.	Pure-phase assemblage after simulation 3.

-------------------------------Phase assemblage--------------------------------

                                                      Moles in assemblage
Phase               SI  log IAP  log K(T, P)   Initial       Final       Delta

O2(g)            -7.27   -10.16     -2.89    0.000e+00               0.000e+00

-----------------------------Solution composition------------------------------

	Elements           Molality       Moles

	Cl                1.108e-10   1.108e-05
	K                 8.300e-02   8.300e+03
	Na                2.500e-02   2.500e+03

----------------------------Description of solution----------------------------

                                       pH  =  12.913      Charge balance
                                       pe  =   6.068      Adjusted to redox equilibrium
                        Activity of water  =   0.996
                           Ionic strength  =   1.080e-01
                       Mass of water (kg)  =   1.000e+05
                 Total alkalinity (eq/kg)  =   1.080e-01
                    Total carbon (mol/kg)  =   0.000e+00
                       Total CO2 (mol/kg)  =   0.000e+00
                         Temperature (°C)  =  25.00
                  Electrical balance (eq)  =  -7.030e-09
 Percent error, 100*(Cat-|An|)/(Cat+|An|)  =  -0.00
                               Iterations  =   3
                                  Total H  = 1.111204e+07
                                  Total O  = 5.561422e+06

----------------------------Distribution of species----------------------------

                                               Log       Log       Log    mole V
   Species          Molality    Activity  Molality  Activity     Gamma   cm³/mol

   OH-             1.080e-01   8.162e-02    -0.967    -1.088    -0.122     (0)  
   H+              1.486e-13   1.222e-13   -12.828   -12.913    -0.085      0.00
   H2O             5.551e+01   9.963e-01     1.744    -0.002     0.000     18.07
Cl            1.108e-10
   Cl-             1.108e-10   8.402e-11    -9.956   -10.076    -0.120     (0)  
H(0)          0.000e+00
   H2              0.000e+00   0.000e+00   -41.123   -41.113     0.011     (0)  
K             8.300e-02
   K+              8.300e-02   6.296e-02    -1.081    -1.201    -0.120     (0)  
Na            2.500e-02
   Na+             2.500e-02   1.945e-02    -1.602    -1.711    -0.109     (0)  
O(0)          1.356e-10
   O2              6.780e-11   6.950e-11   -10.169   -10.158     0.011     (0)  

------------------------------Saturation indices-------------------------------

  Phase               SI** log IAP   log K(298 K,   1 atm)

  H2(g)           -37.96    -41.11   -3.15  H2
  H2O(g)           -1.51     -0.00    1.51  H2O
  Halite          -13.37    -11.79    1.58  NaCl
  O2(g)            -7.27    -10.16   -2.89  O2

**For a gas, SI = log10(fugacity). Fugacity = pressure * phi / 1 atm.
  For ideal gases, phi = 1.

------------------
End of simulation.
------------------

------------------------------------
Reading input data for simulation 4.
------------------------------------

-------------------------------
End of Run after 2.572 Seconds.
-------------------------------

