WARNING: Database file from DATABASE keyword is used; command line argument ignored.
   Input file: ddl_flux
  Output file: ddl_flux.out
Database file: ../database/wateq4f.dat

------------------
Reading data base.
------------------

	SOLUTION_MASTER_SPECIES
	SOLUTION_SPECIES
	PHASES
	EXCHANGE_MASTER_SPECIES
	EXCHANGE_SPECIES
	SURFACE_MASTER_SPECIES
	SURFACE_SPECIES
	RATES
	END
------------------------------------
Reading input data for simulation 1.
------------------------------------

	DATABASE ../database/wateq4f.dat
	SELECTED_OUTPUT 101
	    file                 ddl_flux_101.sel
	USER_PUNCH 101
	    headings Mu SC
	    start
	10 PUNCH STR_F$(MU, 20, 12)
	20 PUNCH STR_F$(SC, 20, 10)
	    end
	SOLUTION_MASTER_SPECIES
	Hto     Hto             0.0     1       1
	Na_tr   Na_tr+          0.0     1       1
	Cl_tr   Cl_tr-          0.0     1       1
	Sr_tr   Sr_tr+2         0.0     1       1
	SOLUTION_SPECIES
	Hto = Hto
	 log_k 0
	 gamma 1e6 0
	 erm_ddl 1#-dw 2.236e-9
	Na_tr+ = Na_tr+
	 log_k 0
	 gamma 1e6 0
	Cl_tr- = Cl_tr-
	 log_k 0
	 gamma 1e6 0
	Sr_tr+2 = Sr_tr+2
	 log_k 0
	 gamma 1e6 0
	SURFACE_MASTER_SPECIES
	 Su Su-
	 Sua Sua+
	SURFACE_SPECIES
	 Su- = Su-
	 log_k 0
	 Sua+ = Sua+
	 log_k 0
	END
------------------
End of simulation.
------------------

------------------------------------
Reading input data for simulation 2.
------------------------------------

	SOLUTION 0
	 water 5.0000e-01
	Na 100
	 Cl 10 charge
	Sr_tr 1e-3
	 Na_tr 1e-3
	 Hto 1e-3
	 Cl_tr 1e-3
	PHASES
	 A_sr
	 Sr_trCl2 = Sr_tr+2 + 2Cl-
	 log_k -14
	 A_na
	 Na_trCl = Na_tr+ + Cl-
	 log_k -14
	 A_cl
	 NaCl_tr = Na+ + Cl_tr-
	 log_k -14
	 A_hto
	 Hto = Hto
	 log_k -15
	END
-------------------------------------------
Beginning of initial solution calculations.
-------------------------------------------

Initial solution 0.	

-----------------------------Solution composition------------------------------

	Elements           Molality       Moles

	Cl                1.000e-01   5.000e-02  Charge balance
	Cl_tr             1.000e-06   5.000e-07
	Hto               1.000e-06   5.000e-07
	Na                1.000e-01   5.000e-02
	Na_tr             1.000e-06   5.000e-07
	Sr_tr             1.000e-06   5.000e-07

----------------------------Description of solution----------------------------

                                       pH  =   7.000    
                                       pe  =   4.000    
                        Activity of water  =   0.997
                 Ionic strength (mol/kgw)  =   1.000e-01
                       Mass of water (kg)  =   5.000e-01
                 Total alkalinity (eq/kg)  =   9.841e-09
                         Temperature (°C)  =  25.00
                  Electrical balance (eq)  =  -1.226e-13
 Percent error, 100*(Cat-|An|)/(Cat+|An|)  =  -0.00
                               Iterations  =   6
                                  Total H  = 5.550622e+01
                                  Total O  = 2.775311e+01

----------------------------Distribution of species----------------------------

                                               Log       Log       Log    mole V
   Species          Molality    Activity  Molality  Activity     Gamma   cm³/mol

   OH-             1.310e-07   9.977e-08    -6.883    -7.001    -0.118     (0)  
   H+              1.212e-07   1.000e-07    -6.917    -7.000    -0.083      0.00
   H2O             5.551e+01   9.966e-01     1.744    -0.001     0.000     18.07
Cl            1.000e-01
   Cl-             1.000e-01   7.642e-02    -1.000    -1.117    -0.117     (0)  
Cl_tr         1.000e-06
   Cl_tr-          1.000e-06   1.000e-06    -6.000    -6.000    -0.000     (0)  
H(0)          1.384e-25
   H2              6.918e-26   7.079e-26   -25.160   -25.150     0.010     (0)  
Hto           1.000e-06
   Hto             1.000e-06   1.000e-06    -6.000    -6.000     0.000     (0)  
Na            1.000e-01
   Na+             1.000e-01   7.826e-02    -1.000    -1.106    -0.106     (0)  
Na_tr         1.000e-06
   Na_tr+          1.000e-06   1.000e-06    -6.000    -6.000    -0.000     (0)  
O(0)          0.000e+00
   O2              0.000e+00   0.000e+00   -42.093   -42.083     0.010     (0)  
Sr_tr         1.000e-06
   Sr_tr+2         1.000e-06   1.000e-06    -6.000    -6.000    -0.000     (0)  

------------------------------Saturation indices-------------------------------

  Phase               SI** log IAP   log K(298 K,   1 atm)

  A_cl              6.89     -7.11  -14.00  NaCl_tr
  A_hto             9.00     -6.00  -15.00  Hto
  A_na              6.88     -7.12  -14.00  Na_trCl
  A_sr              5.77     -8.23  -14.00  Sr_trCl2
  H2(g)           -22.00    -25.15   -3.15  H2
  H2O(g)           -1.51     -0.00    1.51  H2O
  Halite           -3.81     -2.22    1.58  NaCl
  O2(g)           -39.19    -42.08   -2.89  O2

**For a gas, SI = log10(fugacity). Fugacity = pressure * phi / 1 atm.
  For ideal gases, phi = 1.

------------------
End of simulation.
------------------

------------------------------------
Reading input data for simulation 3.
------------------------------------

	SOLUTION 1-10
	 water 0.5
	Na 100
	 Cl 10 charge
	SURFACE 1-10
	 equilibrate 4
	  Su 0.05e1 1.0000e+00 1
	 donnan 5e-4 v 1
	END
-------------------------------------------
Beginning of initial solution calculations.
-------------------------------------------

Initial solution 1.	

-----------------------------Solution composition------------------------------

	Elements           Molality       Moles

	Cl                1.000e-01   5.000e-02  Charge balance
	Na                1.000e-01   5.000e-02

----------------------------Description of solution----------------------------

                                       pH  =   7.000    
                                       pe  =   4.000    
                        Activity of water  =   0.997
                 Ionic strength (mol/kgw)  =   1.000e-01
                       Mass of water (kg)  =   5.000e-01
                 Total alkalinity (eq/kg)  =   9.841e-09
                         Temperature (°C)  =  25.00
                  Electrical balance (eq)  =  -1.227e-13
 Percent error, 100*(Cat-|An|)/(Cat+|An|)  =  -0.00
                               Iterations  =   6
                                  Total H  = 5.550622e+01
                                  Total O  = 2.775311e+01

----------------------------Distribution of species----------------------------

                                               Log       Log       Log    mole V
   Species          Molality    Activity  Molality  Activity     Gamma   cm³/mol

   OH-             1.310e-07   9.977e-08    -6.883    -7.001    -0.118     (0)  
   H+              1.212e-07   1.000e-07    -6.917    -7.000    -0.083      0.00
   H2O             5.551e+01   9.966e-01     1.744    -0.001     0.000     18.07
Cl            1.000e-01
   Cl-             1.000e-01   7.642e-02    -1.000    -1.117    -0.117     (0)  
H(0)          1.384e-25
   H2              6.918e-26   7.079e-26   -25.160   -25.150     0.010     (0)  
Na            1.000e-01
   Na+             1.000e-01   7.826e-02    -1.000    -1.106    -0.106     (0)  
O(0)          0.000e+00
   O2              0.000e+00   0.000e+00   -42.093   -42.083     0.010     (0)  

------------------------------Saturation indices-------------------------------

  Phase               SI** log IAP   log K(298 K,   1 atm)

  H2(g)           -22.00    -25.15   -3.15  H2
  H2O(g)           -1.51     -0.00    1.51  H2O
  Halite           -3.81     -2.22    1.58  NaCl
  O2(g)           -39.19    -42.08   -2.89  O2

**For a gas, SI = log10(fugacity). Fugacity = pressure * phi / 1 atm.
  For ideal gases, phi = 1.

------------------------------------------------------
Beginning of initial surface-composition calculations.
------------------------------------------------------

Surface 1.	

Diffuse Double Layer Surface-Complexation Model

Su            
	  4.796e-10  Surface + diffuse layer charge, eq
	 -5.000e-01  Surface charge, eq
	 -4.825e+04  sigma, C/m²
	 -7.590e-01  psi, V
	  2.954e+01  -F*psi/RT
	  6.765e+12  exp(-F*psi/RT)
	  1.000e+00  specific area, m²/g
	  1.000e+00  m² for   1.000e+00 g

	Water in diffuse layer: 5.000e-01 kg, 100.0% of total DDL-water.

	Total moles in diffuse layer (excluding water), Donnan calculation.
	Donnan Layer potential, psi_DL = -5.941e-02 V.
	Boltzmann factor, exp(-psi_DL * F / RT) = 1.010e+01 (= c_DL / c_free if z is +1).

	Element       	     Moles
	Cl            	  4.9510e-03
	H             	  6.1828e-07
	Na            	  5.0495e-01
	O             	  6.4858e-09

Su            
	  5.000e-01  moles
	                                   Mole                     Log
	Species               Moles    Fraction    Molality    Molality

	Su-               5.000e-01       1.000   1.000e+00       0.000

-----------------------------------------
Beginning of batch-reaction calculations.
-----------------------------------------

Reaction step 1.

Using solution 1.	
Using surface 1.	

------------------------------Surface composition------------------------------

Diffuse Double Layer Surface-Complexation Model

Su            
	  1.612e-11  Surface + diffuse layer charge, eq
	 -5.000e-01  Surface charge, eq
	 -4.825e+04  sigma, C/m²
	 -7.590e-01  psi, V
	  2.954e+01  -F*psi/RT
	  6.765e+12  exp(-F*psi/RT)
	  1.000e+00  specific area, m²/g
	  1.000e+00  m² for   1.000e+00 g

	Water in diffuse layer: 5.000e-01 kg, 100.0% of total DDL-water.

	Total moles in diffuse layer (excluding water), Donnan calculation.
	Donnan Layer potential, psi_DL = -5.941e-02 V.
	Boltzmann factor, exp(-psi_DL * F / RT) = 1.010e+01 (= c_DL / c_free if z is +1).

	Element       	     Moles
	Cl            	  4.9510e-03
	H             	  6.1828e-07
	Na            	  5.0495e-01
	O             	  6.4858e-09

Su            
	  5.000e-01  moles
	                                   Mole                     Log
	Species               Moles    Fraction    Molality    Molality

	Su-               5.000e-01       1.000   1.000e+00       0.000

-----------------------------Solution composition------------------------------

	Elements           Molality       Moles

	Cl                1.000e-01   5.000e-02
	Na                1.000e-01   5.000e-02

----------------------------Description of solution----------------------------

                                       pH  =   7.000      Charge balance
                                       pe  =  10.817      Adjusted to redox equilibrium
                        Activity of water  =   0.997
                 Ionic strength (mol/kgw)  =   1.000e-01
                       Mass of water (kg)  =   5.000e-01
                 Total alkalinity (eq/kg)  =   9.841e-09
                         Temperature (°C)  =  25.00
                  Electrical balance (eq)  =   4.795e-10
 Percent error, 100*(Cat-|An|)/(Cat+|An|)  =   0.00
                               Iterations  =   0 (15 overall)
                                  Total H  = 5.550622e+01
                                  Total O  = 2.775311e+01

----------------------------Distribution of species----------------------------

                                               Log       Log       Log    mole V
   Species          Molality    Activity  Molality  Activity     Gamma   cm³/mol

   OH-             1.310e-07   9.977e-08    -6.883    -7.001    -0.118     (0)  
   H+              1.212e-07   1.000e-07    -6.917    -7.000    -0.083      0.00
   H2O             5.551e+01   9.966e-01     1.744    -0.001     0.000     18.07
Cl            1.000e-01
   Cl-             1.000e-01   7.642e-02    -1.000    -1.117    -0.117     (0)  
H(0)          3.208e-39
   H2              1.604e-39   1.641e-39   -38.795   -38.785     0.010     (0)  
Na            1.000e-01
   Na+             1.000e-01   7.826e-02    -1.000    -1.106    -0.106     (0)  
O(0)          3.004e-15
   O2              1.502e-15   1.537e-15   -14.823   -14.813     0.010     (0)  

------------------------------Saturation indices-------------------------------

  Phase               SI** log IAP   log K(298 K,   1 atm)

  H2(g)           -35.63    -38.78   -3.15  H2
  H2O(g)           -1.51     -0.00    1.51  H2O
  Halite           -3.81     -2.22    1.58  NaCl
  O2(g)           -11.92    -14.81   -2.89  O2

**For a gas, SI = log10(fugacity). Fugacity = pressure * phi / 1 atm.
  For ideal gases, phi = 1.

------------------
End of simulation.
------------------

------------------------------------
Reading input data for simulation 4.
------------------------------------

	EQUILIBRIUM_PHASES 6
	 A_hto 0 0
	 A_sr 0 0
	 A_na 0 0
	 A_cl 0 0
	END
------------------
End of simulation.
------------------

------------------------------------
Reading input data for simulation 5.
------------------------------------

	SELECTED_OUTPUT
	 file ddl_flux.prn
	 reset false
	USER_PUNCH
	 heading days J_hto J_sr J_na J_cl EB #A_hto A_Sr
	 start
	  1 t$ = chr$(9) + '  '
	  2 if step_no = 0 then punch eol$ + '     analyt' + t$ + trim(str$(6.9396e-7)) + t$ + trim(str$(6.9396e-7 * 51.474)) + t$ + trim(str$(6.9396e-7 * 5.5484)) + t$ + trim(str$(6.9396e-7 * 0.54952)) + eol$ : goto 80
	  10 punch total_time / (24 * 3600)
	  12 if step_no = 0 then goto 80
	  20 A_hto = equi("A_hto")
	  30 A_sr = equi("A_sr")
	  32 A_na = equi("A_na")
	  34 A_cl = equi("A_cl")
	  40 J_hto = (A_hto - get(1))
	  50 J_sr = (A_sr - get(2)) 
	  52 J_na = (A_na - get(3))
	  54 J_cl = (A_cl - get(4))
	  60 punch J_hto, J_sr, J_na, J_cl, percent_error
	  80 put(A_hto, 1)
	  90 put(A_sr, 2)
	  92 put(A_na, 3)
	  94 put(A_cl, 4)
	 end
	TRANSPORT
	 shifts 11
	 flow_direction diff
	 cells 6
	 bcond 1 2
	 lengths 6*1
	 timest 5e9  1
	 multi_d true 2e-09 0.3 0 0.8
	 punch_cells 6
	END
WARNING: No dispersivities were read; disp = 0 assumed.
WARNING: No porosities were read; used the value 3.00e-01 from -multi_D.
------------------------------------
Beginning of transport calculations.
------------------------------------

-------------------------------
Equilibrating initial solutions
-------------------------------

Using solution 0.	

-----------------------------Solution composition------------------------------

	Elements           Molality       Moles

	Cl                1.000e-01   5.000e-02
	Cl_tr             1.000e-06   5.000e-07
	Hto               1.000e-06   5.000e-07
	Na                1.000e-01   5.000e-02
	Na_tr             1.000e-06   5.000e-07
	Sr_tr             1.000e-06   5.000e-07

----------------------------Description of solution----------------------------

                                       pH  =   7.000      Charge balance
                                       pe  =   4.000      Adjusted to redox equilibrium
                        Activity of water  =   0.997
                 Ionic strength (mol/kgw)  =   1.000e-01
                       Mass of water (kg)  =   5.000e-01
                 Total alkalinity (eq/kg)  =   9.841e-09
                         Temperature (°C)  =  25.00
                  Electrical balance (eq)  =  -1.226e-13
 Percent error, 100*(Cat-|An|)/(Cat+|An|)  =  -0.00
                               Iterations  =   0
                                  Total H  = 5.550622e+01
                                  Total O  = 2.775311e+01

----------------------------Distribution of species----------------------------

                                               Log       Log       Log    mole V
   Species          Molality    Activity  Molality  Activity     Gamma   cm³/mol

   OH-             1.310e-07   9.977e-08    -6.883    -7.001    -0.118     (0)  
   H+              1.212e-07   1.000e-07    -6.917    -7.000    -0.083      0.00
   H2O             5.551e+01   9.966e-01     1.744    -0.001     0.000     18.07
Cl            1.000e-01
   Cl-             1.000e-01   7.642e-02    -1.000    -1.117    -0.117     (0)  
Cl_tr         1.000e-06
   Cl_tr-          1.000e-06   1.000e-06    -6.000    -6.000    -0.000     (0)  
H(0)          1.384e-25
   H2              6.918e-26   7.079e-26   -25.160   -25.150     0.010     (0)  
Hto           1.000e-06
   Hto             1.000e-06   1.000e-06    -6.000    -6.000     0.000     (0)  
Na            1.000e-01
   Na+             1.000e-01   7.826e-02    -1.000    -1.106    -0.106     (0)  
Na_tr         1.000e-06
   Na_tr+          1.000e-06   1.000e-06    -6.000    -6.000    -0.000     (0)  
O(0)          0.000e+00
   O2              0.000e+00   0.000e+00   -42.093   -42.083     0.010     (0)  
Sr_tr         1.000e-06
   Sr_tr+2         1.000e-06   1.000e-06    -6.000    -6.000    -0.000     (0)  

------------------------------Saturation indices-------------------------------

  Phase               SI** log IAP   log K(298 K,   1 atm)

  A_cl              6.89     -7.11  -14.00  NaCl_tr
  A_hto             9.00     -6.00  -15.00  Hto
  A_na              6.88     -7.12  -14.00  Na_trCl
  A_sr              5.77     -8.23  -14.00  Sr_trCl2
  H2(g)           -22.00    -25.15   -3.15  H2
  H2O(g)           -1.51     -0.00    1.51  H2O
  Halite           -3.81     -2.22    1.58  NaCl
  O2(g)           -39.19    -42.08   -2.89  O2

**For a gas, SI = log10(fugacity). Fugacity = pressure * phi / 1 atm.
  For ideal gases, phi = 1.

Using solution 1.	
Using surface 1.	

------------------------------Surface composition------------------------------

Diffuse Double Layer Surface-Complexation Model

Su            
	  1.612e-11  Surface + diffuse layer charge, eq
	 -5.000e-01  Surface charge, eq
	 -4.825e+04  sigma, C/m²
	 -7.590e-01  psi, V
	  2.954e+01  -F*psi/RT
	  6.765e+12  exp(-F*psi/RT)
	  1.000e+00  specific area, m²/g
	  1.000e+00  m² for   1.000e+00 g

	Water in diffuse layer: 5.000e-01 kg, 100.0% of total DDL-water.

	Total moles in diffuse layer (excluding water), Donnan calculation.
	Donnan Layer potential, psi_DL = -5.941e-02 V.
	Boltzmann factor, exp(-psi_DL * F / RT) = 1.010e+01 (= c_DL / c_free if z is +1).

	Element       	     Moles
	Cl            	  4.9510e-03
	H             	  6.1828e-07
	Na            	  5.0495e-01
	O             	  6.4858e-09

Su            
	  5.000e-01  moles
	                                   Mole                     Log
	Species               Moles    Fraction    Molality    Molality

	Su-               5.000e-01       1.000   1.000e+00       0.000

-----------------------------Solution composition------------------------------

	Elements           Molality       Moles

	Cl                1.000e-01   5.000e-02
	Na                1.000e-01   5.000e-02

----------------------------Description of solution----------------------------

                                       pH  =   7.000      Charge balance
                                       pe  =  10.817      Adjusted to redox equilibrium
                        Activity of water  =   0.997
                 Ionic strength (mol/kgw)  =   1.000e-01
                       Mass of water (kg)  =   5.000e-01
                 Total alkalinity (eq/kg)  =   9.841e-09
                         Temperature (°C)  =  25.00
                  Electrical balance (eq)  =   4.795e-10
 Percent error, 100*(Cat-|An|)/(Cat+|An|)  =   0.00
                               Iterations  =   0 (15 overall)
                                  Total H  = 5.550622e+01
                                  Total O  = 2.775311e+01

----------------------------Distribution of species----------------------------

                                               Log       Log       Log    mole V
   Species          Molality    Activity  Molality  Activity     Gamma   cm³/mol

   OH-             1.310e-07   9.977e-08    -6.883    -7.001    -0.118     (0)  
   H+              1.212e-07   1.000e-07    -6.917    -7.000    -0.083      0.00
   H2O             5.551e+01   9.966e-01     1.744    -0.001     0.000     18.07
Cl            1.000e-01
   Cl-             1.000e-01   7.642e-02    -1.000    -1.117    -0.117     (0)  
H(0)          3.208e-39
   H2              1.604e-39   1.641e-39   -38.795   -38.785     0.010     (0)  
Na            1.000e-01
   Na+             1.000e-01   7.826e-02    -1.000    -1.106    -0.106     (0)  
O(0)          3.004e-15
   O2              1.502e-15   1.537e-15   -14.823   -14.813     0.010     (0)  

------------------------------Saturation indices-------------------------------

  Phase               SI** log IAP   log K(298 K,   1 atm)

  H2(g)           -35.63    -38.78   -3.15  H2
  H2O(g)           -1.51     -0.00    1.51  H2O
  Halite           -3.81     -2.22    1.58  NaCl
  O2(g)           -11.92    -14.81   -2.89  O2

**For a gas, SI = log10(fugacity). Fugacity = pressure * phi / 1 atm.
  For ideal gases, phi = 1.

Using solution 2.	
Using surface 2.	

------------------------------Surface composition------------------------------

Diffuse Double Layer Surface-Complexation Model

Su            
	  1.612e-11  Surface + diffuse layer charge, eq
	 -5.000e-01  Surface charge, eq
	 -4.825e+04  sigma, C/m²
	 -7.590e-01  psi, V
	  2.954e+01  -F*psi/RT
	  6.765e+12  exp(-F*psi/RT)
	  1.000e+00  specific area, m²/g
	  1.000e+00  m² for   1.000e+00 g

	Water in diffuse layer: 5.000e-01 kg, 100.0% of total DDL-water.

	Total moles in diffuse layer (excluding water), Donnan calculation.
	Donnan Layer potential, psi_DL = -5.941e-02 V.
	Boltzmann factor, exp(-psi_DL * F / RT) = 1.010e+01 (= c_DL / c_free if z is +1).

	Element       	     Moles
	Cl            	  4.9510e-03
	H             	  6.1828e-07
	Na            	  5.0495e-01
	O             	  6.4858e-09

Su            
	  5.000e-01  moles
	                                   Mole                     Log
	Species               Moles    Fraction    Molality    Molality

	Su-               5.000e-01       1.000   1.000e+00       0.000

-----------------------------Solution composition------------------------------

	Elements           Molality       Moles

	Cl                1.000e-01   5.000e-02
	Na                1.000e-01   5.000e-02

----------------------------Description of solution----------------------------

                                       pH  =   7.000      Charge balance
                                       pe  =  10.817      Adjusted to redox equilibrium
                        Activity of water  =   0.997
                 Ionic strength (mol/kgw)  =   1.000e-01
                       Mass of water (kg)  =   5.000e-01
                 Total alkalinity (eq/kg)  =   9.841e-09
                         Temperature (°C)  =  25.00
                  Electrical balance (eq)  =   4.795e-10
 Percent error, 100*(Cat-|An|)/(Cat+|An|)  =   0.00
                               Iterations  =   0 (30 overall)
                                  Total H  = 5.550622e+01
                                  Total O  = 2.775311e+01

----------------------------Distribution of species----------------------------

                                               Log       Log       Log    mole V
   Species          Molality    Activity  Molality  Activity     Gamma   cm³/mol

   OH-             1.310e-07   9.977e-08    -6.883    -7.001    -0.118     (0)  
   H+              1.212e-07   1.000e-07    -6.917    -7.000    -0.083      0.00
   H2O             5.551e+01   9.966e-01     1.744    -0.001     0.000     18.07
Cl            1.000e-01
   Cl-             1.000e-01   7.642e-02    -1.000    -1.117    -0.117     (0)  
H(0)          3.208e-39
   H2              1.604e-39   1.641e-39   -38.795   -38.785     0.010     (0)  
Na            1.000e-01
   Na+             1.000e-01   7.826e-02    -1.000    -1.106    -0.106     (0)  
O(0)          3.004e-15
   O2              1.502e-15   1.537e-15   -14.823   -14.813     0.010     (0)  

------------------------------Saturation indices-------------------------------

  Phase               SI** log IAP   log K(298 K,   1 atm)

  H2(g)           -35.63    -38.78   -3.15  H2
  H2O(g)           -1.51     -0.00    1.51  H2O
  Halite           -3.81     -2.22    1.58  NaCl
  O2(g)           -11.92    -14.81   -2.89  O2

**For a gas, SI = log10(fugacity). Fugacity = pressure * phi / 1 atm.
  For ideal gases, phi = 1.

Using solution 3.	
Using surface 3.	

------------------------------Surface composition------------------------------

Diffuse Double Layer Surface-Complexation Model

Su            
	  1.612e-11  Surface + diffuse layer charge, eq
	 -5.000e-01  Surface charge, eq
	 -4.825e+04  sigma, C/m²
	 -7.590e-01  psi, V
	  2.954e+01  -F*psi/RT
	  6.765e+12  exp(-F*psi/RT)
	  1.000e+00  specific area, m²/g
	  1.000e+00  m² for   1.000e+00 g

	Water in diffuse layer: 5.000e-01 kg, 100.0% of total DDL-water.

	Total moles in diffuse layer (excluding water), Donnan calculation.
	Donnan Layer potential, psi_DL = -5.941e-02 V.
	Boltzmann factor, exp(-psi_DL * F / RT) = 1.010e+01 (= c_DL / c_free if z is +1).

	Element       	     Moles
	Cl            	  4.9510e-03
	H             	  6.1828e-07
	Na            	  5.0495e-01
	O             	  6.4858e-09

Su            
	  5.000e-01  moles
	                                   Mole                     Log
	Species               Moles    Fraction    Molality    Molality

	Su-               5.000e-01       1.000   1.000e+00       0.000

-----------------------------Solution composition------------------------------

	Elements           Molality       Moles

	Cl                1.000e-01   5.000e-02
	Na                1.000e-01   5.000e-02

----------------------------Description of solution----------------------------

                                       pH  =   7.000      Charge balance
                                       pe  =  10.817      Adjusted to redox equilibrium
                        Activity of water  =   0.997
                 Ionic strength (mol/kgw)  =   1.000e-01
                       Mass of water (kg)  =   5.000e-01
                 Total alkalinity (eq/kg)  =   9.841e-09
                         Temperature (°C)  =  25.00
                  Electrical balance (eq)  =   4.795e-10
 Percent error, 100*(Cat-|An|)/(Cat+|An|)  =   0.00
                               Iterations  =   0 (45 overall)
                                  Total H  = 5.550622e+01
                                  Total O  = 2.775311e+01

----------------------------Distribution of species----------------------------

                                               Log       Log       Log    mole V
   Species          Molality    Activity  Molality  Activity     Gamma   cm³/mol

   OH-             1.310e-07   9.977e-08    -6.883    -7.001    -0.118     (0)  
   H+              1.212e-07   1.000e-07    -6.917    -7.000    -0.083      0.00
   H2O             5.551e+01   9.966e-01     1.744    -0.001     0.000     18.07
Cl            1.000e-01
   Cl-             1.000e-01   7.642e-02    -1.000    -1.117    -0.117     (0)  
H(0)          3.208e-39
   H2              1.604e-39   1.641e-39   -38.795   -38.785     0.010     (0)  
Na            1.000e-01
   Na+             1.000e-01   7.826e-02    -1.000    -1.106    -0.106     (0)  
O(0)          3.004e-15
   O2              1.502e-15   1.537e-15   -14.823   -14.813     0.010     (0)  

------------------------------Saturation indices-------------------------------

  Phase               SI** log IAP   log K(298 K,   1 atm)

  H2(g)           -35.63    -38.78   -3.15  H2
  H2O(g)           -1.51     -0.00    1.51  H2O
  Halite           -3.81     -2.22    1.58  NaCl
  O2(g)           -11.92    -14.81   -2.89  O2

**For a gas, SI = log10(fugacity). Fugacity = pressure * phi / 1 atm.
  For ideal gases, phi = 1.

Using solution 4.	
Using surface 4.	

------------------------------Surface composition------------------------------

Diffuse Double Layer Surface-Complexation Model

Su            
	  1.612e-11  Surface + diffuse layer charge, eq
	 -5.000e-01  Surface charge, eq
	 -4.825e+04  sigma, C/m²
	 -7.590e-01  psi, V
	  2.954e+01  -F*psi/RT
	  6.765e+12  exp(-F*psi/RT)
	  1.000e+00  specific area, m²/g
	  1.000e+00  m² for   1.000e+00 g

	Water in diffuse layer: 5.000e-01 kg, 100.0% of total DDL-water.

	Total moles in diffuse layer (excluding water), Donnan calculation.
	Donnan Layer potential, psi_DL = -5.941e-02 V.
	Boltzmann factor, exp(-psi_DL * F / RT) = 1.010e+01 (= c_DL / c_free if z is +1).

	Element       	     Moles
	Cl            	  4.9510e-03
	H             	  6.1828e-07
	Na            	  5.0495e-01
	O             	  6.4858e-09

Su            
	  5.000e-01  moles
	                                   Mole                     Log
	Species               Moles    Fraction    Molality    Molality

	Su-               5.000e-01       1.000   1.000e+00       0.000

-----------------------------Solution composition------------------------------

	Elements           Molality       Moles

	Cl                1.000e-01   5.000e-02
	Na                1.000e-01   5.000e-02

----------------------------Description of solution----------------------------

                                       pH  =   7.000      Charge balance
                                       pe  =  10.817      Adjusted to redox equilibrium
                        Activity of water  =   0.997
                 Ionic strength (mol/kgw)  =   1.000e-01
                       Mass of water (kg)  =   5.000e-01
                 Total alkalinity (eq/kg)  =   9.841e-09
                         Temperature (°C)  =  25.00
                  Electrical balance (eq)  =   4.795e-10
 Percent error, 100*(Cat-|An|)/(Cat+|An|)  =   0.00
                               Iterations  =   0 (60 overall)
                                  Total H  = 5.550622e+01
                                  Total O  = 2.775311e+01

----------------------------Distribution of species----------------------------

                                               Log       Log       Log    mole V
   Species          Molality    Activity  Molality  Activity     Gamma   cm³/mol

   OH-             1.310e-07   9.977e-08    -6.883    -7.001    -0.118     (0)  
   H+              1.212e-07   1.000e-07    -6.917    -7.000    -0.083      0.00
   H2O             5.551e+01   9.966e-01     1.744    -0.001     0.000     18.07
Cl            1.000e-01
   Cl-             1.000e-01   7.642e-02    -1.000    -1.117    -0.117     (0)  
H(0)          3.208e-39
   H2              1.604e-39   1.641e-39   -38.795   -38.785     0.010     (0)  
Na            1.000e-01
   Na+             1.000e-01   7.826e-02    -1.000    -1.106    -0.106     (0)  
O(0)          3.004e-15
   O2              1.502e-15   1.537e-15   -14.823   -14.813     0.010     (0)  

------------------------------Saturation indices-------------------------------

  Phase               SI** log IAP   log K(298 K,   1 atm)

  H2(g)           -35.63    -38.78   -3.15  H2
  H2O(g)           -1.51     -0.00    1.51  H2O
  Halite           -3.81     -2.22    1.58  NaCl
  O2(g)           -11.92    -14.81   -2.89  O2

**For a gas, SI = log10(fugacity). Fugacity = pressure * phi / 1 atm.
  For ideal gases, phi = 1.

Using solution 5.	
Using surface 5.	

------------------------------Surface composition------------------------------

Diffuse Double Layer Surface-Complexation Model

Su            
	  1.612e-11  Surface + diffuse layer charge, eq
	 -5.000e-01  Surface charge, eq
	 -4.825e+04  sigma, C/m²
	 -7.590e-01  psi, V
	  2.954e+01  -F*psi/RT
	  6.765e+12  exp(-F*psi/RT)
	  1.000e+00  specific area, m²/g
	  1.000e+00  m² for   1.000e+00 g

	Water in diffuse layer: 5.000e-01 kg, 100.0% of total DDL-water.

	Total moles in diffuse layer (excluding water), Donnan calculation.
	Donnan Layer potential, psi_DL = -5.941e-02 V.
	Boltzmann factor, exp(-psi_DL * F / RT) = 1.010e+01 (= c_DL / c_free if z is +1).

	Element       	     Moles
	Cl            	  4.9510e-03
	H             	  6.1828e-07
	Na            	  5.0495e-01
	O             	  6.4858e-09

Su            
	  5.000e-01  moles
	                                   Mole                     Log
	Species               Moles    Fraction    Molality    Molality

	Su-               5.000e-01       1.000   1.000e+00       0.000

-----------------------------Solution composition------------------------------

	Elements           Molality       Moles

	Cl                1.000e-01   5.000e-02
	Na                1.000e-01   5.000e-02

----------------------------Description of solution----------------------------

                                       pH  =   7.000      Charge balance
                                       pe  =  10.817      Adjusted to redox equilibrium
                        Activity of water  =   0.997
                 Ionic strength (mol/kgw)  =   1.000e-01
                       Mass of water (kg)  =   5.000e-01
                 Total alkalinity (eq/kg)  =   9.841e-09
                         Temperature (°C)  =  25.00
                  Electrical balance (eq)  =   4.795e-10
 Percent error, 100*(Cat-|An|)/(Cat+|An|)  =   0.00
                               Iterations  =   0 (75 overall)
                                  Total H  = 5.550622e+01
                                  Total O  = 2.775311e+01

----------------------------Distribution of species----------------------------

                                               Log       Log       Log    mole V
   Species          Molality    Activity  Molality  Activity     Gamma   cm³/mol

   OH-             1.310e-07   9.977e-08    -6.883    -7.001    -0.118     (0)  
   H+              1.212e-07   1.000e-07    -6.917    -7.000    -0.083      0.00
   H2O             5.551e+01   9.966e-01     1.744    -0.001     0.000     18.07
Cl            1.000e-01
   Cl-             1.000e-01   7.642e-02    -1.000    -1.117    -0.117     (0)  
H(0)          3.208e-39
   H2              1.604e-39   1.641e-39   -38.795   -38.785     0.010     (0)  
Na            1.000e-01
   Na+             1.000e-01   7.826e-02    -1.000    -1.106    -0.106     (0)  
O(0)          3.004e-15
   O2              1.502e-15   1.537e-15   -14.823   -14.813     0.010     (0)  

------------------------------Saturation indices-------------------------------

  Phase               SI** log IAP   log K(298 K,   1 atm)

  H2(g)           -35.63    -38.78   -3.15  H2
  H2O(g)           -1.51     -0.00    1.51  H2O
  Halite           -3.81     -2.22    1.58  NaCl
  O2(g)           -11.92    -14.81   -2.89  O2

**For a gas, SI = log10(fugacity). Fugacity = pressure * phi / 1 atm.
  For ideal gases, phi = 1.

Using solution 6.	
Using surface 6.	
Using pure phase assemblage 6.	

-------------------------------Phase assemblage--------------------------------

                                                      Moles in assemblage
Phase               SI  log IAP  log K(T, P)   Initial       Final       Delta

A_cl                 Element not present.    0.000e+00               0.000e+00
A_hto                Element not present.    0.000e+00               0.000e+00
A_na                 Element not present.    0.000e+00               0.000e+00
A_sr                 Element not present.    0.000e+00               0.000e+00

------------------------------Surface composition------------------------------

Diffuse Double Layer Surface-Complexation Model

Su            
	 -8.379e-13  Surface + diffuse layer charge, eq
	 -5.000e-01  Surface charge, eq
	 -4.825e+04  sigma, C/m²
	 -7.590e-01  psi, V
	  2.954e+01  -F*psi/RT
	  6.765e+12  exp(-F*psi/RT)
	  1.000e+00  specific area, m²/g
	  1.000e+00  m² for   1.000e+00 g

	Water in diffuse layer: 5.000e-01 kg, 100.0% of total DDL-water.

	Total moles in diffuse layer (excluding water), Donnan calculation.
	Donnan Layer potential, psi_DL = -5.941e-02 V.
	Boltzmann factor, exp(-psi_DL * F / RT) = 1.010e+01 (= c_DL / c_free if z is +1).

	Element       	     Moles
	Cl            	  4.9510e-03
	H             	  6.1828e-07
	Na            	  5.0495e-01
	O             	  6.4858e-09

Su            
	  5.000e-01  moles
	                                   Mole                     Log
	Species               Moles    Fraction    Molality    Molality

	Su-               5.000e-01       1.000   1.000e+00       0.000

-----------------------------Solution composition------------------------------

	Elements           Molality       Moles

	Cl                1.000e-01   5.000e-02
	Na                1.000e-01   5.000e-02

----------------------------Description of solution----------------------------

                                       pH  =   7.000      Charge balance
                                       pe  =  10.817      Adjusted to redox equilibrium
                        Activity of water  =   0.997
                 Ionic strength (mol/kgw)  =   1.000e-01
                       Mass of water (kg)  =   5.000e-01
                 Total alkalinity (eq/kg)  =   9.841e-09
                         Temperature (°C)  =  25.00
                  Electrical balance (eq)  =   4.795e-10
 Percent error, 100*(Cat-|An|)/(Cat+|An|)  =   0.00
                               Iterations  =   1 (91 overall)
                                  Total H  = 5.550622e+01
                                  Total O  = 2.775311e+01

----------------------------Distribution of species----------------------------

                                               Log       Log       Log    mole V
   Species          Molality    Activity  Molality  Activity     Gamma   cm³/mol

   OH-             1.310e-07   9.977e-08    -6.883    -7.001    -0.118     (0)  
   H+              1.212e-07   1.000e-07    -6.917    -7.000    -0.083      0.00
   H2O             5.551e+01   9.966e-01     1.744    -0.001     0.000     18.07
Cl            1.000e-01
   Cl-             1.000e-01   7.642e-02    -1.000    -1.117    -0.117     (0)  
H(0)          3.208e-39
   H2              1.604e-39   1.642e-39   -38.795   -38.785     0.010     (0)  
Na            1.000e-01
   Na+             1.000e-01   7.826e-02    -1.000    -1.106    -0.106     (0)  
O(0)          3.003e-15
   O2              1.501e-15   1.536e-15   -14.823   -14.813     0.010     (0)  

------------------------------Saturation indices-------------------------------

  Phase               SI** log IAP   log K(298 K,   1 atm)

  H2(g)           -35.63    -38.78   -3.15  H2
  H2O(g)           -1.51     -0.00    1.51  H2O
  Halite           -3.81     -2.22    1.58  NaCl
  O2(g)           -11.92    -14.81   -2.89  O2

**For a gas, SI = log10(fugacity). Fugacity = pressure * phi / 1 atm.
  For ideal gases, phi = 1.

WARNING: 
Calculating transport: 6 (mobile) cells, 11 shifts, 18 mixruns...


Transport step   1. Multicomponent diffusion run  18.

Using solution 0.	Solution after simulation 5.

-----------------------------Solution composition------------------------------

	Elements           Molality       Moles

	Cl                1.000e-01   5.000e-02
	Cl_tr             1.000e-06   5.000e-07
	Hto               1.000e-06   5.000e-07
	Na                1.000e-01   5.000e-02
	Na_tr             1.000e-06   5.000e-07
	Sr_tr             1.000e-06   5.000e-07

----------------------------Description of solution----------------------------

                                       pH  =   7.000      Charge balance
                                       pe  =   4.000      Adjusted to redox equilibrium
                        Activity of water  =   0.997
                 Ionic strength (mol/kgw)  =   1.000e-01
                       Mass of water (kg)  =   5.000e-01
                 Total alkalinity (eq/kg)  =   9.841e-09
                         Temperature (°C)  =  25.00
                  Electrical balance (eq)  =  -1.239e-13
 Percent error, 100*(Cat-|An|)/(Cat+|An|)  =  -0.00
                               Iterations  =   0
                                  Total H  = 5.550622e+01
                                  Total O  = 2.775311e+01

----------------------------Distribution of species----------------------------

                                               Log       Log       Log    mole V
   Species          Molality    Activity  Molality  Activity     Gamma   cm³/mol

   OH-             1.310e-07   9.977e-08    -6.883    -7.001    -0.118     (0)  
   H+              1.212e-07   1.000e-07    -6.917    -7.000    -0.083      0.00
   H2O             5.551e+01   9.966e-01     1.744    -0.001     0.000     18.07
Cl            1.000e-01
   Cl-             1.000e-01   7.642e-02    -1.000    -1.117    -0.117     (0)  
Cl_tr         1.000e-06
   Cl_tr-          1.000e-06   1.000e-06    -6.000    -6.000    -0.000     (0)  
H(0)          1.384e-25
   H2              6.918e-26   7.079e-26   -25.160   -25.150     0.010     (0)  
Hto           1.000e-06
   Hto             1.000e-06   1.000e-06    -6.000    -6.000     0.000     (0)  
Na            1.000e-01
   Na+             1.000e-01   7.826e-02    -1.000    -1.106    -0.106     (0)  
Na_tr         1.000e-06
   Na_tr+          1.000e-06   1.000e-06    -6.000    -6.000    -0.000     (0)  
O(0)          0.000e+00
   O2              0.000e+00   0.000e+00   -42.093   -42.083     0.010     (0)  
Sr_tr         1.000e-06
   Sr_tr+2         1.000e-06   1.000e-06    -6.000    -6.000    -0.000     (0)  

------------------------------Saturation indices-------------------------------

  Phase               SI** log IAP   log K(298 K,   1 atm)

  A_cl              6.89     -7.11  -14.00  NaCl_tr
  A_hto             9.00     -6.00  -15.00  Hto
  A_na              6.88     -7.12  -14.00  Na_trCl
  A_sr              5.77     -8.23  -14.00  Sr_trCl2
  H2(g)           -22.00    -25.15   -3.15  H2
  H2O(g)           -1.51     -0.00    1.51  H2O
  Halite           -3.81     -2.22    1.58  NaCl
  O2(g)           -39.19    -42.08   -2.89  O2

**For a gas, SI = log10(fugacity). Fugacity = pressure * phi / 1 atm.
  For ideal gases, phi = 1.

Using mix 1.	
Using surface 1.	

Mixture 1.	

	  0.000e+00 Solution 0	Solution after simulation 5.                           
	  1.000e+00 Solution 1	Solution after simulation 5.                           
	  0.000e+00 Solution 2	Solution after simulation 5.                           

------------------------------Surface composition------------------------------

Diffuse Double Layer Surface-Complexation Model

Su            
	  1.580e-11  Surface + diffuse layer charge, eq
	 -5.000e-01  Surface charge, eq
	 -4.825e+04  sigma, C/m²
	 -7.590e-01  psi, V
	  2.954e+01  -F*psi/RT
	  6.765e+12  exp(-F*psi/RT)
	  1.000e+00  specific area, m²/g
	  1.000e+00  m² for   1.000e+00 g

	Water in diffuse layer: 5.000e-01 kg, 100.0% of total DDL-water.

	Total moles in diffuse layer (excluding water), Donnan calculation.
	Donnan Layer potential, psi_DL = -5.940e-02 V.
	Boltzmann factor, exp(-psi_DL * F / RT) = 1.010e+01 (= c_DL / c_free if z is +1).

	Element       	     Moles
	Cl            	  4.9520e-03
	Cl_tr         	  4.2437e-08
	H             	  6.1817e-07
	Hto           	  4.3025e-07
	Na            	  5.0486e-01
	Na_tr         	  4.3607e-06
	O             	  6.4880e-09
	Sr_tr         	  4.4311e-05

Su            
	  5.000e-01  moles
	                                   Mole                     Log
	Species               Moles    Fraction    Molality    Molality

	Su-               5.000e-01       1.000   1.000e+00      -0.000

-----------------------------Solution composition------------------------------

	Elements           Molality       Moles

	Cl                1.000e-01   5.000e-02
	Cl_tr             8.570e-07   4.285e-07
	Hto               8.605e-07   4.302e-07
	Na                1.000e-01   5.000e-02
	Na_tr             8.637e-07   4.319e-07
	Sr_tr             8.693e-07   4.346e-07

----------------------------Description of solution----------------------------

                                       pH  =   7.000      Charge balance
                                       pe  =  11.527      Adjusted to redox equilibrium
                        Activity of water  =   0.997
                 Ionic strength (mol/kgw)  =   1.000e-01
                       Mass of water (kg)  =   5.000e-01
                 Total alkalinity (eq/kg)  =   9.839e-09
                         Temperature (°C)  =  25.00
                  Electrical balance (eq)  =   2.036e-09
 Percent error, 100*(Cat-|An|)/(Cat+|An|)  =   0.00
                               Iterations  =   0 (10 overall)
                                  Total H  = 5.550622e+01
                                  Total O  = 2.775311e+01

----------------------------Distribution of species----------------------------

                                               Log       Log       Log    mole V
   Species          Molality    Activity  Molality  Activity     Gamma   cm³/mol

   OH-             1.310e-07   9.977e-08    -6.883    -7.001    -0.118     (0)  
   H+              1.212e-07   1.000e-07    -6.917    -7.000    -0.083      0.00
   H2O             5.551e+01   9.966e-01     1.744    -0.001     0.000     18.07
Cl            1.000e-01
   Cl-             1.000e-01   7.642e-02    -1.000    -1.117    -0.117     (0)  
Cl_tr         8.570e-07
   Cl_tr-          8.570e-07   8.570e-07    -6.067    -6.067    -0.000     (0)  
H(0)          0.000e+00
   H2              0.000e+00   0.000e+00   -40.214   -40.204     0.010     (0)  
Hto           8.605e-07
   Hto             8.605e-07   8.605e-07    -6.065    -6.065     0.000     (0)  
Na            1.000e-01
   Na+             1.000e-01   7.826e-02    -1.000    -1.106    -0.106     (0)  
Na_tr         8.637e-07
   Na_tr+          8.637e-07   8.637e-07    -6.064    -6.064    -0.000     (0)  
O(0)          2.067e-12
   O2              1.033e-12   1.057e-12   -11.986   -11.976     0.010     (0)  
Sr_tr         8.693e-07
   Sr_tr+2         8.693e-07   8.692e-07    -6.061    -6.061    -0.000     (0)  

------------------------------Saturation indices-------------------------------

  Phase               SI** log IAP   log K(298 K,   1 atm)

  A_cl              6.83     -7.17  -14.00  NaCl_tr
  A_hto             8.93     -6.07  -15.00  Hto
  A_na              6.82     -7.18  -14.00  Na_trCl
  A_sr              5.71     -8.29  -14.00  Sr_trCl2
  H2(g)           -37.05    -40.20   -3.15  H2
  H2O(g)           -1.51     -0.00    1.51  H2O
  Halite           -3.81     -2.22    1.58  NaCl
  O2(g)            -9.08    -11.98   -2.89  O2

**For a gas, SI = log10(fugacity). Fugacity = pressure * phi / 1 atm.
  For ideal gases, phi = 1.

Using mix 2.	
Using surface 2.	

Mixture 2.	

	  0.000e+00 Solution 1	Solution after simulation 5.                           
	  1.000e+00 Solution 2	Solution after simulation 5.                           
	  0.000e+00 Solution 3	Solution after simulation 5.                           

------------------------------Surface composition------------------------------

Diffuse Double Layer Surface-Complexation Model

Su            
	  1.581e-11  Surface + diffuse layer charge, eq
	 -5.000e-01  Surface charge, eq
	 -4.825e+04  sigma, C/m²
	 -7.590e-01  psi, V
	  2.954e+01  -F*psi/RT
	  6.765e+12  exp(-F*psi/RT)
	  1.000e+00  specific area, m²/g
	  1.000e+00  m² for   1.000e+00 g

	Water in diffuse layer: 5.000e-01 kg, 100.0% of total DDL-water.

	Total moles in diffuse layer (excluding water), Donnan calculation.
	Donnan Layer potential, psi_DL = -5.941e-02 V.
	Boltzmann factor, exp(-psi_DL * F / RT) = 1.010e+01 (= c_DL / c_free if z is +1).

	Element       	     Moles
	Cl            	  4.9518e-03
	Cl_tr         	  2.9133e-08
	H             	  6.1821e-07
	Hto           	  2.9878e-07
	Na            	  5.0488e-01
	Na_tr         	  3.0601e-06
	O             	  6.4888e-09
	Sr_tr         	  3.1644e-05

Su            
	  5.000e-01  moles
	                                   Mole                     Log
	Species               Moles    Fraction    Molality    Molality

	Su-               5.000e-01       1.000   1.000e+00      -0.000

-----------------------------Solution composition------------------------------

	Elements           Molality       Moles

	Cl                1.000e-01   5.000e-02
	Cl_tr             5.883e-07   2.942e-07
	Hto               5.976e-07   2.988e-07
	Na                1.000e-01   5.000e-02
	Na_tr             6.061e-07   3.031e-07
	Sr_tr             6.207e-07   3.103e-07

----------------------------Description of solution----------------------------

                                       pH  =   7.000      Charge balance
                                       pe  =  11.611      Adjusted to redox equilibrium
                        Activity of water  =   0.997
                 Ionic strength (mol/kgw)  =   1.000e-01
                       Mass of water (kg)  =   5.000e-01
                 Total alkalinity (eq/kg)  =   9.836e-09
                         Temperature (°C)  =  25.00
                  Electrical balance (eq)  =   1.062e-09
 Percent error, 100*(Cat-|An|)/(Cat+|An|)  =   0.00
                               Iterations  =   0 (10 overall)
                                  Total H  = 5.550622e+01
                                  Total O  = 2.775311e+01

----------------------------Distribution of species----------------------------

                                               Log       Log       Log    mole V
   Species          Molality    Activity  Molality  Activity     Gamma   cm³/mol

   OH-             1.310e-07   9.977e-08    -6.883    -7.001    -0.118     (0)  
   H+              1.212e-07   1.000e-07    -6.917    -7.000    -0.083      0.00
   H2O             5.551e+01   9.966e-01     1.744    -0.001     0.000     18.07
Cl            1.000e-01
   Cl-             1.000e-01   7.642e-02    -1.000    -1.117    -0.117     (0)  
Cl_tr         5.883e-07
   Cl_tr-          5.883e-07   5.883e-07    -6.230    -6.230    -0.000     (0)  
H(0)          0.000e+00
   H2              0.000e+00   0.000e+00   -40.382   -40.372     0.010     (0)  
Hto           5.976e-07
   Hto             5.976e-07   5.976e-07    -6.224    -6.224     0.000     (0)  
Na            1.000e-01
   Na+             1.000e-01   7.826e-02    -1.000    -1.106    -0.106     (0)  
Na_tr         6.061e-07
   Na_tr+          6.061e-07   6.061e-07    -6.217    -6.217    -0.000     (0)  
O(0)          4.496e-12
   O2              2.248e-12   2.300e-12   -11.648   -11.638     0.010     (0)  
Sr_tr         6.207e-07
   Sr_tr+2         6.207e-07   6.207e-07    -6.207    -6.207    -0.000     (0)  

------------------------------Saturation indices-------------------------------

  Phase               SI** log IAP   log K(298 K,   1 atm)

  A_cl              6.66     -7.34  -14.00  NaCl_tr
  A_hto             8.78     -6.22  -15.00  Hto
  A_na              6.67     -7.33  -14.00  Na_trCl
  A_sr              5.56     -8.44  -14.00  Sr_trCl2
  H2(g)           -37.22    -40.37   -3.15  H2
  H2O(g)           -1.51     -0.00    1.51  H2O
  Halite           -3.81     -2.22    1.58  NaCl
  O2(g)            -8.75    -11.64   -2.89  O2

**For a gas, SI = log10(fugacity). Fugacity = pressure * phi / 1 atm.
  For ideal gases, phi = 1.

Using mix 3.	
Using surface 3.	

Mixture 3.	

	  0.000e+00 Solution 2	Solution after simulation 5.                           
	  1.000e+00 Solution 3	Solution after simulation 5.                           
	  0.000e+00 Solution 4	Solution after simulation 5.                           

------------------------------Surface composition------------------------------

Diffuse Double Layer Surface-Complexation Model

Su            
	  1.582e-11  Surface + diffuse layer charge, eq
	 -5.000e-01  Surface charge, eq
	 -4.825e+04  sigma, C/m²
	 -7.590e-01  psi, V
	  2.954e+01  -F*psi/RT
	  6.765e+12  exp(-F*psi/RT)
	  1.000e+00  specific area, m²/g
	  1.000e+00  m² for   1.000e+00 g

	Water in diffuse layer: 5.000e-01 kg, 100.0% of total DDL-water.

	Total moles in diffuse layer (excluding water), Donnan calculation.
	Donnan Layer potential, psi_DL = -5.941e-02 V.
	Boltzmann factor, exp(-psi_DL * F / RT) = 1.010e+01 (= c_DL / c_free if z is +1).

	Element       	     Moles
	Cl            	  4.9515e-03
	Cl_tr         	  1.8092e-08
	H             	  6.1823e-07
	Hto           	  1.8848e-07
	Na            	  5.0491e-01
	Na_tr         	  1.9580e-06
	O             	  6.4891e-09
	Sr_tr         	  2.0725e-05

Su            
	  5.000e-01  moles
	                                   Mole                     Log
	Species               Moles    Fraction    Molality    Molality

	Su-               5.000e-01       1.000   1.000e+00       0.000

-----------------------------Solution composition------------------------------

	Elements           Molality       Moles

	Cl                1.000e-01   5.000e-02
	Cl_tr             3.654e-07   1.827e-07
	Hto               3.770e-07   1.885e-07
	Na                1.000e-01   5.000e-02
	Na_tr             3.878e-07   1.939e-07
	Sr_tr             4.065e-07   2.032e-07

----------------------------Description of solution----------------------------

                                       pH  =   7.000      Charge balance
                                       pe  =  11.636      Adjusted to redox equilibrium
                        Activity of water  =   0.997
                 Ionic strength (mol/kgw)  =   1.000e-01
                       Mass of water (kg)  =   5.000e-01
                 Total alkalinity (eq/kg)  =   9.836e-09
                         Temperature (°C)  =  25.00
                  Electrical balance (eq)  =   8.380e-10
 Percent error, 100*(Cat-|An|)/(Cat+|An|)  =   0.00
                               Iterations  =   0 (10 overall)
                                  Total H  = 5.550622e+01
                                  Total O  = 2.775311e+01

----------------------------Distribution of species----------------------------

                                               Log       Log       Log    mole V
   Species          Molality    Activity  Molality  Activity     Gamma   cm³/mol

   OH-             1.310e-07   9.977e-08    -6.883    -7.001    -0.118     (0)  
   H+              1.212e-07   1.000e-07    -6.917    -7.000    -0.083      0.00
   H2O             5.551e+01   9.966e-01     1.744    -0.001     0.000     18.07
Cl            1.000e-01
   Cl-             1.000e-01   7.642e-02    -1.000    -1.117    -0.117     (0)  
Cl_tr         3.654e-07
   Cl_tr-          3.654e-07   3.654e-07    -6.437    -6.437    -0.000     (0)  
H(0)          0.000e+00
   H2              0.000e+00   0.000e+00   -40.433   -40.423     0.010     (0)  
Hto           3.770e-07
   Hto             3.770e-07   3.770e-07    -6.424    -6.424     0.000     (0)  
Na            1.000e-01
   Na+             1.000e-01   7.826e-02    -1.000    -1.106    -0.106     (0)  
Na_tr         3.878e-07
   Na_tr+          3.878e-07   3.878e-07    -6.411    -6.411    -0.000     (0)  
O(0)          5.675e-12
   O2              2.838e-12   2.904e-12   -11.547   -11.537     0.010     (0)  
Sr_tr         4.065e-07
   Sr_tr+2         4.065e-07   4.065e-07    -6.391    -6.391    -0.000     (0)  

------------------------------Saturation indices-------------------------------

  Phase               SI** log IAP   log K(298 K,   1 atm)

  A_cl              6.46     -7.54  -14.00  NaCl_tr
  A_hto             8.58     -6.42  -15.00  Hto
  A_na              6.47     -7.53  -14.00  Na_trCl
  A_sr              5.38     -8.62  -14.00  Sr_trCl2
  H2(g)           -37.27    -40.42   -3.15  H2
  H2O(g)           -1.51     -0.00    1.51  H2O
  Halite           -3.81     -2.22    1.58  NaCl
  O2(g)            -8.64    -11.54   -2.89  O2

**For a gas, SI = log10(fugacity). Fugacity = pressure * phi / 1 atm.
  For ideal gases, phi = 1.

Using mix 4.	
Using surface 4.	

Mixture 4.	

	  0.000e+00 Solution 3	Solution after simulation 5.                           
	  1.000e+00 Solution 4	Solution after simulation 5.                           
	  0.000e+00 Solution 5	Solution after simulation 5.                           

------------------------------Surface composition------------------------------

Diffuse Double Layer Surface-Complexation Model

Su            
	  1.583e-11  Surface + diffuse layer charge, eq
	 -5.000e-01  Surface charge, eq
	 -4.825e+04  sigma, C/m²
	 -7.590e-01  psi, V
	  2.954e+01  -F*psi/RT
	  6.765e+12  exp(-F*psi/RT)
	  1.000e+00  specific area, m²/g
	  1.000e+00  m² for   1.000e+00 g

	Water in diffuse layer: 5.000e-01 kg, 100.0% of total DDL-water.

	Total moles in diffuse layer (excluding water), Donnan calculation.
	Donnan Layer potential, psi_DL = -5.941e-02 V.
	Boltzmann factor, exp(-psi_DL * F / RT) = 1.010e+01 (= c_DL / c_free if z is +1).

	Element       	     Moles
	Cl            	  4.9512e-03
	Cl_tr         	  9.9044e-09
	H             	  6.1826e-07
	Hto           	  1.0509e-07
	Na            	  5.0493e-01
	Na_tr         	  1.1097e-06
	O             	  6.4890e-09
	Sr_tr         	  1.2061e-05

Su            
	  5.000e-01  moles
	                                   Mole                     Log
	Species               Moles    Fraction    Molality    Molality

	Su-               5.000e-01       1.000   1.000e+00       0.000

-----------------------------Solution composition------------------------------

	Elements           Molality       Moles

	Cl                1.000e-01   5.000e-02
	Cl_tr             2.000e-07   1.000e-07
	Hto               2.102e-07   1.051e-07
	Na                1.000e-01   5.000e-02
	Na_tr             2.198e-07   1.099e-07
	Sr_tr             2.365e-07   1.183e-07

----------------------------Description of solution----------------------------

                                       pH  =   7.000      Charge balance
                                       pe  =  11.641      Adjusted to redox equilibrium
                        Activity of water  =   0.997
                 Ionic strength (mol/kgw)  =   1.000e-01
                       Mass of water (kg)  =   5.000e-01
                 Total alkalinity (eq/kg)  =   9.840e-09
                         Temperature (°C)  =  25.00
                  Electrical balance (eq)  =   7.759e-10
 Percent error, 100*(Cat-|An|)/(Cat+|An|)  =   0.00
                               Iterations  =   0 (10 overall)
                                  Total H  = 5.550622e+01
                                  Total O  = 2.775311e+01

----------------------------Distribution of species----------------------------

                                               Log       Log       Log    mole V
   Species          Molality    Activity  Molality  Activity     Gamma   cm³/mol

   OH-             1.310e-07   9.977e-08    -6.883    -7.001    -0.118     (0)  
   H+              1.212e-07   1.000e-07    -6.917    -7.000    -0.083      0.00
   H2O             5.551e+01   9.966e-01     1.744    -0.001     0.000     18.07
Cl            1.000e-01
   Cl-             1.000e-01   7.642e-02    -1.000    -1.117    -0.117     (0)  
Cl_tr         2.000e-07
   Cl_tr-          2.000e-07   2.000e-07    -6.699    -6.699    -0.000     (0)  
H(0)          0.000e+00
   H2              0.000e+00   0.000e+00   -40.442   -40.432     0.010     (0)  
Hto           2.102e-07
   Hto             2.102e-07   2.102e-07    -6.677    -6.677     0.000     (0)  
Na            1.000e-01
   Na+             1.000e-01   7.826e-02    -1.000    -1.106    -0.106     (0)  
Na_tr         2.198e-07
   Na_tr+          2.198e-07   2.198e-07    -6.658    -6.658    -0.000     (0)  
O(0)          5.911e-12
   O2              2.955e-12   3.024e-12   -11.529   -11.519     0.010     (0)  
Sr_tr         2.365e-07
   Sr_tr+2         2.365e-07   2.365e-07    -6.626    -6.626    -0.000     (0)  

------------------------------Saturation indices-------------------------------

  Phase               SI** log IAP   log K(298 K,   1 atm)

  A_cl              6.19     -7.81  -14.00  NaCl_tr
  A_hto             8.32     -6.68  -15.00  Hto
  A_na              6.23     -7.77  -14.00  Na_trCl
  A_sr              5.14     -8.86  -14.00  Sr_trCl2
  H2(g)           -37.28    -40.43   -3.15  H2
  H2O(g)           -1.51     -0.00    1.51  H2O
  Halite           -3.81     -2.22    1.58  NaCl
  O2(g)            -8.63    -11.52   -2.89  O2

**For a gas, SI = log10(fugacity). Fugacity = pressure * phi / 1 atm.
  For ideal gases, phi = 1.

Using mix 5.	
Using surface 5.	

Mixture 5.	

	  0.000e+00 Solution 4	Solution after simulation 5.                           
	  1.000e+00 Solution 5	Solution after simulation 5.                           
	  0.000e+00 Solution 6	Solution after simulation 5.                           

------------------------------Surface composition------------------------------

Diffuse Double Layer Surface-Complexation Model

Su            
	  1.586e-11  Surface + diffuse layer charge, eq
	 -5.000e-01  Surface charge, eq
	 -4.825e+04  sigma, C/m²
	 -7.590e-01  psi, V
	  2.954e+01  -F*psi/RT
	  6.765e+12  exp(-F*psi/RT)
	  1.000e+00  specific area, m²/g
	  1.000e+00  m² for   1.000e+00 g

	Water in diffuse layer: 5.000e-01 kg, 100.0% of total DDL-water.

	Total moles in diffuse layer (excluding water), Donnan calculation.
	Donnan Layer potential, psi_DL = -5.941e-02 V.
	Boltzmann factor, exp(-psi_DL * F / RT) = 1.010e+01 (= c_DL / c_free if z is +1).

	Element       	     Moles
	Cl            	  4.9506e-03
	Cl_tr         	  4.2301e-09
	H             	  6.1827e-07
	Hto           	  4.5625e-08
	Na            	  5.0494e-01
	Na_tr         	  4.8871e-07
	O             	  6.4886e-09
	Sr_tr         	  5.4336e-06

Su            
	  5.000e-01  moles
	                                   Mole                     Log
	Species               Moles    Fraction    Molality    Molality

	Su-               5.000e-01       1.000   1.000e+00       0.000

-----------------------------Solution composition------------------------------

	Elements           Molality       Moles

	Cl                1.000e-01   5.000e-02
	Cl_tr             8.544e-08   4.272e-08
	Hto               9.125e-08   4.562e-08
	Na                9.999e-02   5.000e-02
	Na_tr             9.678e-08   4.839e-08
	Sr_tr             1.065e-07   5.327e-08

----------------------------Description of solution----------------------------

                                       pH  =   7.000      Charge balance
                                       pe  =  11.634      Adjusted to redox equilibrium
                        Activity of water  =   0.997
                 Ionic strength (mol/kgw)  =   1.000e-01
                       Mass of water (kg)  =   5.000e-01
                 Total alkalinity (eq/kg)  =   9.849e-09
                         Temperature (°C)  =  25.00
                  Electrical balance (eq)  =   7.573e-10
 Percent error, 100*(Cat-|An|)/(Cat+|An|)  =   0.00
                               Iterations  =   0 (10 overall)
                                  Total H  = 5.550622e+01
                                  Total O  = 2.775311e+01

----------------------------Distribution of species----------------------------

                                               Log       Log       Log    mole V
   Species          Molality    Activity  Molality  Activity     Gamma   cm³/mol

   OH-             1.310e-07   9.977e-08    -6.883    -7.001    -0.118     (0)  
   H+              1.212e-07   1.000e-07    -6.917    -7.000    -0.083      0.00
   H2O             5.551e+01   9.966e-01     1.744    -0.001     0.000     18.07
Cl            1.000e-01
   Cl-             1.000e-01   7.642e-02    -1.000    -1.117    -0.117     (0)  
Cl_tr         8.544e-08
   Cl_tr-          8.544e-08   8.544e-08    -7.068    -7.068    -0.000     (0)  
H(0)          0.000e+00
   H2              0.000e+00   0.000e+00   -40.429   -40.419     0.010     (0)  
Hto           9.125e-08
   Hto             9.125e-08   9.125e-08    -7.040    -7.040     0.000     (0)  
Na            9.999e-02
   Na+             9.999e-02   7.826e-02    -1.000    -1.106    -0.106     (0)  
Na_tr         9.678e-08
   Na_tr+          9.678e-08   9.678e-08    -7.014    -7.014    -0.000     (0)  
O(0)          5.563e-12
   O2              2.781e-12   2.846e-12   -11.556   -11.546     0.010     (0)  
Sr_tr         1.065e-07
   Sr_tr+2         1.065e-07   1.065e-07    -6.972    -6.972    -0.000     (0)  

------------------------------Saturation indices-------------------------------

  Phase               SI** log IAP   log K(298 K,   1 atm)

  A_cl              5.83     -8.17  -14.00  NaCl_tr
  A_hto             7.96     -7.04  -15.00  Hto
  A_na              5.87     -8.13  -14.00  Na_trCl
  A_sr              4.79     -9.21  -14.00  Sr_trCl2
  H2(g)           -37.27    -40.42   -3.15  H2
  H2O(g)           -1.51     -0.00    1.51  H2O
  Halite           -3.81     -2.22    1.58  NaCl
  O2(g)            -8.65    -11.55   -2.89  O2

**For a gas, SI = log10(fugacity). Fugacity = pressure * phi / 1 atm.
  For ideal gases, phi = 1.

Using mix 6.	
Using surface 6.	
Using pure phase assemblage 6.	Pure-phase assemblage after simulation 5.

Mixture 6.	

	  0.000e+00 Solution 5	Solution after simulation 5.                           
	  1.000e+00 Solution 6	Solution after simulation 5.                           
	  0.000e+00 Solution 7	                                                       

-------------------------------Phase assemblage--------------------------------

                                                      Moles in assemblage
Phase               SI  log IAP  log K(T, P)   Initial       Final       Delta

A_cl              0.00   -14.00    -14.00    0.000e+00   5.500e-08   5.500e-08
A_hto             0.00   -15.00    -15.00    0.000e+00   1.159e-07   1.159e-07
A_na             -0.00   -14.00    -14.00    0.000e+00   7.367e-07   7.367e-07
A_sr              0.00   -14.00    -14.00    0.000e+00   8.786e-06   8.786e-06

------------------------------Surface composition------------------------------

Diffuse Double Layer Surface-Complexation Model

Su            
	  1.250e-10  Surface + diffuse layer charge, eq
	 -5.000e-01  Surface charge, eq
	 -4.825e+04  sigma, C/m²
	 -7.590e-01  psi, V
	  2.954e+01  -F*psi/RT
	  6.766e+12  exp(-F*psi/RT)
	  1.000e+00  specific area, m²/g
	  1.000e+00  m² for   1.000e+00 g

	Water in diffuse layer: 5.000e-01 kg, 100.0% of total DDL-water.

	Total moles in diffuse layer (excluding water), Donnan calculation.
	Donnan Layer potential, psi_DL = -5.941e-02 V.
	Boltzmann factor, exp(-psi_DL * F / RT) = 1.010e+01 (= c_DL / c_free if z is +1).

	Element       	     Moles
	Cl            	  4.9497e-03
	Cl_tr         	  6.3260e-15
	H             	  6.1829e-07
	Hto           	  5.0000e-16
	Na            	  5.0495e-01
	Na_tr         	  6.6090e-13
	O             	  6.4881e-09
	Sr_tr         	  8.7358e-11

Su            
	  5.000e-01  moles
	                                   Mole                     Log
	Species               Moles    Fraction    Molality    Molality

	Su-               5.000e-01       1.000   1.000e+00       0.000

-----------------------------Solution composition------------------------------

	Elements           Molality       Moles

	Cl                9.999e-02   4.999e-02
	Cl_tr             1.278e-13   6.389e-14
	Hto               1.000e-15   5.000e-16
	Na                9.999e-02   4.999e-02
	Na_tr             1.309e-13   6.543e-14
	Sr_tr             1.713e-12   8.563e-13

----------------------------Description of solution----------------------------

                                       pH  =   7.000      Charge balance
                                       pe  =  11.625      Adjusted to redox equilibrium
                        Activity of water  =   0.997
                 Ionic strength (mol/kgw)  =   9.999e-02
                       Mass of water (kg)  =   5.000e-01
                 Total alkalinity (eq/kg)  =   9.866e-09
                         Temperature (°C)  =  25.00
                  Electrical balance (eq)  =   7.982e-10
 Percent error, 100*(Cat-|An|)/(Cat+|An|)  =   0.00
                               Iterations  =   1 (10 overall)
                                  Total H  = 5.550622e+01
                                  Total O  = 2.775311e+01

----------------------------Distribution of species----------------------------

                                               Log       Log       Log    mole V
   Species          Molality    Activity  Molality  Activity     Gamma   cm³/mol

   OH-             1.310e-07   9.978e-08    -6.883    -7.001    -0.118     (0)  
   H+              1.211e-07   9.999e-08    -6.917    -7.000    -0.083      0.00
   H2O             5.551e+01   9.966e-01     1.744    -0.001     0.000     18.07
Cl            9.999e-02
   Cl-             9.999e-02   7.641e-02    -1.000    -1.117    -0.117     (0)  
Cl_tr         1.278e-13
   Cl_tr-          1.278e-13   1.278e-13   -12.894   -12.894    -0.000     (0)  
H(0)          0.000e+00
   H2              0.000e+00   0.000e+00   -40.410   -40.400     0.010     (0)  
Hto           1.000e-15
   Hto             1.000e-15   1.000e-15   -15.000   -15.000     0.000     (0)  
Na            9.999e-02
   Na+             9.999e-02   7.825e-02    -1.000    -1.106    -0.106     (0)  
Na_tr         1.309e-13
   Na_tr+          1.309e-13   1.309e-13   -12.883   -12.883    -0.000     (0)  
O(0)          5.114e-12
   O2              2.557e-12   2.617e-12   -11.592   -11.582     0.010     (0)  
Sr_tr         1.713e-12
   Sr_tr+2         1.713e-12   1.713e-12   -11.766   -11.766    -0.000     (0)  

------------------------------Saturation indices-------------------------------

  Phase               SI** log IAP   log K(298 K,   1 atm)

  A_cl              0.00    -14.00  -14.00  NaCl_tr
  A_hto             0.00    -15.00  -15.00  Hto
  A_na             -0.00    -14.00  -14.00  Na_trCl
  A_sr              0.00    -14.00  -14.00  Sr_trCl2
  H2(g)           -37.25    -40.40   -3.15  H2
  H2O(g)           -1.51     -0.00    1.51  H2O
  Halite           -3.81     -2.22    1.58  NaCl
  O2(g)            -8.69    -11.58   -2.89  O2

**For a gas, SI = log10(fugacity). Fugacity = pressure * phi / 1 atm.
  For ideal gases, phi = 1.

Transport step   2. Multicomponent diffusion run  18.

Using solution 0.	Solution after simulation 5.

-----------------------------Solution composition------------------------------

	Elements           Molality       Moles

	Cl                1.000e-01   5.000e-02
	Cl_tr             1.000e-06   5.000e-07
	Hto               1.000e-06   5.000e-07
	Na                1.000e-01   5.000e-02
	Na_tr             1.000e-06   5.000e-07
	Sr_tr             1.000e-06   5.000e-07

----------------------------Description of solution----------------------------

                                       pH  =   7.000      Charge balance
                                       pe  =   4.000      Adjusted to redox equilibrium
                        Activity of water  =   0.997
                 Ionic strength (mol/kgw)  =   1.000e-01
                       Mass of water (kg)  =   5.000e-01
                 Total alkalinity (eq/kg)  =   9.841e-09
                         Temperature (°C)  =  25.00
                  Electrical balance (eq)  =  -1.239e-13
 Percent error, 100*(Cat-|An|)/(Cat+|An|)  =  -0.00
                               Iterations  =   0
                                  Total H  = 5.550622e+01
                                  Total O  = 2.775311e+01

----------------------------Distribution of species----------------------------

                                               Log       Log       Log    mole V
   Species          Molality    Activity  Molality  Activity     Gamma   cm³/mol

   OH-             1.310e-07   9.977e-08    -6.883    -7.001    -0.118     (0)  
   H+              1.212e-07   1.000e-07    -6.917    -7.000    -0.083      0.00
   H2O             5.551e+01   9.966e-01     1.744    -0.001     0.000     18.07
Cl            1.000e-01
   Cl-             1.000e-01   7.642e-02    -1.000    -1.117    -0.117     (0)  
Cl_tr         1.000e-06
   Cl_tr-          1.000e-06   1.000e-06    -6.000    -6.000    -0.000     (0)  
H(0)          1.384e-25
   H2              6.918e-26   7.079e-26   -25.160   -25.150     0.010     (0)  
Hto           1.000e-06
   Hto             1.000e-06   1.000e-06    -6.000    -6.000     0.000     (0)  
Na            1.000e-01
   Na+             1.000e-01   7.826e-02    -1.000    -1.106    -0.106     (0)  
Na_tr         1.000e-06
   Na_tr+          1.000e-06   1.000e-06    -6.000    -6.000    -0.000     (0)  
O(0)          0.000e+00
   O2              0.000e+00   0.000e+00   -42.093   -42.083     0.010     (0)  
Sr_tr         1.000e-06
   Sr_tr+2         1.000e-06   1.000e-06    -6.000    -6.000    -0.000     (0)  

------------------------------Saturation indices-------------------------------

  Phase               SI** log IAP   log K(298 K,   1 atm)

  A_cl              6.89     -7.11  -14.00  NaCl_tr
  A_hto             9.00     -6.00  -15.00  Hto
  A_na              6.88     -7.12  -14.00  Na_trCl
  A_sr              5.77     -8.23  -14.00  Sr_trCl2
  H2(g)           -22.00    -25.15   -3.15  H2
  H2O(g)           -1.51     -0.00    1.51  H2O
  Halite           -3.81     -2.22    1.58  NaCl
  O2(g)           -39.19    -42.08   -2.89  O2

**For a gas, SI = log10(fugacity). Fugacity = pressure * phi / 1 atm.
  For ideal gases, phi = 1.

Using mix 1.	
Using surface 1.	

Mixture 1.	

	  0.000e+00 Solution 0	Solution after simulation 5.                           
	  1.000e+00 Solution 1	Solution after simulation 5.                           
	  0.000e+00 Solution 2	Solution after simulation 5.                           

------------------------------Surface composition------------------------------

Diffuse Double Layer Surface-Complexation Model

Su            
	  1.580e-11  Surface + diffuse layer charge, eq
	 -5.000e-01  Surface charge, eq
	 -4.825e+04  sigma, C/m²
	 -7.590e-01  psi, V
	  2.954e+01  -F*psi/RT
	  6.765e+12  exp(-F*psi/RT)
	  1.000e+00  specific area, m²/g
	  1.000e+00  m² for   1.000e+00 g

	Water in diffuse layer: 5.000e-01 kg, 100.0% of total DDL-water.

	Total moles in diffuse layer (excluding water), Donnan calculation.
	Donnan Layer potential, psi_DL = -5.940e-02 V.
	Boltzmann factor, exp(-psi_DL * F / RT) = 1.010e+01 (= c_DL / c_free if z is +1).

	Element       	     Moles
	Cl            	  4.9518e-03
	Cl_tr         	  4.4305e-08
	H             	  6.1817e-07
	Hto           	  4.4825e-07
	Na            	  5.0486e-01
	Na_tr         	  4.5338e-06
	O             	  6.4884e-09
	Sr_tr         	  4.5851e-05

Su            
	  5.000e-01  moles
	                                   Mole                     Log
	Species               Moles    Fraction    Molality    Molality

	Su-               5.000e-01       1.000   1.000e+00       0.000

-----------------------------Solution composition------------------------------

	Elements           Molality       Moles

	Cl                1.000e-01   5.000e-02
	Cl_tr             8.947e-07   4.474e-07
	Hto               8.965e-07   4.482e-07
	Na                1.000e-01   5.000e-02
	Na_tr             8.980e-07   4.490e-07
	Sr_tr             8.994e-07   4.497e-07

----------------------------Description of solution----------------------------

                                       pH  =   7.000      Charge balance
                                       pe  =  11.563      Adjusted to redox equilibrium
                        Activity of water  =   0.997
                 Ionic strength (mol/kgw)  =   1.000e-01
                       Mass of water (kg)  =   5.000e-01
                 Total alkalinity (eq/kg)  =   9.843e-09
                         Temperature (°C)  =  25.00
                  Electrical balance (eq)  =   2.320e-09
 Percent error, 100*(Cat-|An|)/(Cat+|An|)  =   0.00
                               Iterations  =   0 (10 overall)
                                  Total H  = 5.550622e+01
                                  Total O  = 2.775311e+01

----------------------------Distribution of species----------------------------

                                               Log       Log       Log    mole V
   Species          Molality    Activity  Molality  Activity     Gamma   cm³/mol

   OH-             1.310e-07   9.977e-08    -6.883    -7.001    -0.118     (0)  
   H+              1.212e-07   1.000e-07    -6.917    -7.000    -0.083      0.00
   H2O             5.551e+01   9.966e-01     1.744    -0.001     0.000     18.07
Cl            1.000e-01
   Cl-             1.000e-01   7.642e-02    -1.000    -1.117    -0.117     (0)  
Cl_tr         8.947e-07
   Cl_tr-          8.947e-07   8.947e-07    -6.048    -6.048    -0.000     (0)  
H(0)          0.000e+00
   H2              0.000e+00   0.000e+00   -40.287   -40.277     0.010     (0)  
Hto           8.965e-07
   Hto             8.965e-07   8.965e-07    -6.047    -6.047     0.000     (0)  
Na            1.000e-01
   Na+             1.000e-01   7.826e-02    -1.000    -1.106    -0.106     (0)  
Na_tr         8.980e-07
   Na_tr+          8.980e-07   8.980e-07    -6.047    -6.047    -0.000     (0)  
O(0)          2.892e-12
   O2              1.446e-12   1.480e-12   -11.840   -11.830     0.010     (0)  
Sr_tr         8.994e-07
   Sr_tr+2         8.994e-07   8.994e-07    -6.046    -6.046    -0.000     (0)  

------------------------------Saturation indices-------------------------------

  Phase               SI** log IAP   log K(298 K,   1 atm)

  A_cl              6.85     -7.15  -14.00  NaCl_tr
  A_hto             8.95     -6.05  -15.00  Hto
  A_na              6.84     -7.16  -14.00  Na_trCl
  A_sr              5.72     -8.28  -14.00  Sr_trCl2
  H2(g)           -37.13    -40.28   -3.15  H2
  H2O(g)           -1.51     -0.00    1.51  H2O
  Halite           -3.81     -2.22    1.58  NaCl
  O2(g)            -8.94    -11.83   -2.89  O2

**For a gas, SI = log10(fugacity). Fugacity = pressure * phi / 1 atm.
  For ideal gases, phi = 1.

Using mix 2.	
Using surface 2.	

Mixture 2.	

	  0.000e+00 Solution 1	Solution after simulation 5.                           
	  1.000e+00 Solution 2	Solution after simulation 5.                           
	  0.000e+00 Solution 3	Solution after simulation 5.                           

------------------------------Surface composition------------------------------

Diffuse Double Layer Surface-Complexation Model

Su            
	  1.581e-11  Surface + diffuse layer charge, eq
	 -5.000e-01  Surface charge, eq
	 -4.825e+04  sigma, C/m²
	 -7.590e-01  psi, V
	  2.954e+01  -F*psi/RT
	  6.765e+12  exp(-F*psi/RT)
	  1.000e+00  specific area, m²/g
	  1.000e+00  m² for   1.000e+00 g

	Water in diffuse layer: 5.000e-01 kg, 100.0% of total DDL-water.

	Total moles in diffuse layer (excluding water), Donnan calculation.
	Donnan Layer potential, psi_DL = -5.941e-02 V.
	Boltzmann factor, exp(-psi_DL * F / RT) = 1.010e+01 (= c_DL / c_free if z is +1).

	Element       	     Moles
	Cl            	  4.9513e-03
	Cl_tr         	  3.4103e-08
	H             	  6.1820e-07
	Hto           	  3.4674e-07
	Na            	  5.0488e-01
	Na_tr         	  3.5223e-06
	O             	  6.4900e-09
	Sr_tr         	  3.5760e-05

Su            
	  5.000e-01  moles
	                                   Mole                     Log
	Species               Moles    Fraction    Molality    Molality

	Su-               5.000e-01       1.000   1.000e+00       0.000

-----------------------------Solution composition------------------------------

	Elements           Molality       Moles

	Cl                1.000e-01   5.000e-02
	Cl_tr             6.887e-07   3.444e-07
	Hto               6.935e-07   3.467e-07
	Na                9.999e-02   5.000e-02
	Na_tr             6.976e-07   3.488e-07
	Sr_tr             7.014e-07   3.507e-07

----------------------------Description of solution----------------------------

                                       pH  =   7.000      Charge balance
                                       pe  =  11.658      Adjusted to redox equilibrium
                        Activity of water  =   0.997
                 Ionic strength (mol/kgw)  =   1.000e-01
                       Mass of water (kg)  =   5.000e-01
                 Total alkalinity (eq/kg)  =   9.848e-09
                         Temperature (°C)  =  25.00
[...]
Cl            1.001e-01
   Cl-             1.001e-01   7.649e-02    -1.000    -1.116    -0.117     (0)  
Cl_tr         6.995e-07
   Cl_tr-          6.995e-07   6.995e-07    -6.155    -6.155    -0.000     (0)  
H(0)          0.000e+00
   H2              0.000e+00   0.000e+00   -40.990   -40.980     0.010     (0)  
Hto           7.000e-07
   Hto             7.000e-07   7.000e-07    -6.155    -6.155     0.000     (0)  
Na            1.001e-01
   Na+             1.001e-01   7.833e-02    -1.000    -1.106    -0.106     (0)  
Na_tr         6.992e-07
   Na_tr+          6.992e-07   6.992e-07    -6.155    -6.155    -0.000     (0)  
O(0)          7.382e-11
   O2              3.691e-11   3.777e-11   -10.433   -10.423     0.010     (0)  
Sr_tr         6.983e-07
   Sr_tr+2         6.983e-07   6.983e-07    -6.156    -6.156    -0.000     (0)  

------------------------------Saturation indices-------------------------------

  Phase               SI** log IAP   log K(298 K,   1 atm)

  A_cl              6.74     -7.26  -14.00  NaCl_tr
  A_hto             8.85     -6.15  -15.00  Hto
  A_na              6.73     -7.27  -14.00  Na_trCl
  A_sr              5.61     -8.39  -14.00  Sr_trCl2
  H2(g)           -37.83    -40.98   -3.15  H2
  H2O(g)           -1.51     -0.00    1.51  H2O
  Halite           -3.80     -2.22    1.58  NaCl
  O2(g)            -7.53    -10.42   -2.89  O2

**For a gas, SI = log10(fugacity). Fugacity = pressure * phi / 1 atm.
  For ideal gases, phi = 1.

Using solution 6.	Solution after simulation 11.
Using surface 6.	
Using pure phase assemblage 6.	Pure-phase assemblage after simulation 11.

------------------------------Surface composition------------------------------

Diffuse Double Layer Surface-Complexation Model

Su            
	  1.586e-11  Surface + diffuse layer charge, eq
	 -5.000e-01  Surface charge, eq
	 -4.825e+04  sigma, C/m²
	 -7.590e-01  psi, V
	  2.954e+01  -F*psi/RT
	  6.760e+12  exp(-F*psi/RT)
	  1.000e+00  specific area, m²/g
	  1.000e+00  m² for   1.000e+00 g

	Water in diffuse layer: 5.000e-01 kg, 100.0% of total DDL-water.

	Total moles in diffuse layer (excluding water), Donnan calculation.
	Donnan Layer potential, psi_DL = -5.939e-02 V.
	Boltzmann factor, exp(-psi_DL * F / RT) = 1.009e+01 (= c_DL / c_free if z is +1).

	Element       	     Moles
	Cl            	  4.9588e-03
	Cl_tr         	  2.4761e-08
	H             	  6.1832e-07
	Hto           	  2.5000e-07
	Na            	  5.0490e-01
	Na_tr         	  2.5191e-06
	O             	  6.5235e-09
	Sr_tr         	  2.5381e-05

Su            
	  5.000e-01  moles
	                                   Mole                     Log
	Species               Moles    Fraction    Molality    Molality

	Su-               5.000e-01       1.000   1.000e+00       0.000

-----------------------------Solution composition------------------------------

	Elements           Molality       Moles

	Cl                1.001e-01   5.004e-02
	Cl_tr             4.997e-07   2.499e-07
	Hto               5.000e-07   2.500e-07
	Na                1.001e-01   5.004e-02
	Na_tr             4.993e-07   2.496e-07
	Sr_tr             4.985e-07   2.493e-07

----------------------------Description of solution----------------------------

                                       pH  =   7.000      Charge balance
                                       pe  =  11.917      Adjusted to redox equilibrium
                        Activity of water  =   0.997
                 Ionic strength (mol/kgw)  =   1.001e-01
                       Mass of water (kg)  =   5.000e-01
                 Total alkalinity (eq/kg)  =   9.632e-09
                         Temperature (°C)  =  25.00
                  Electrical balance (eq)  =   3.661e-09
 Percent error, 100*(Cat-|An|)/(Cat+|An|)  =   0.00
                               Iterations  =   0 (10 overall)
                                  Total H  = 5.550622e+01
                                  Total O  = 2.775311e+01

----------------------------Distribution of species----------------------------

                                               Log       Log       Log    mole V
   Species          Molality    Activity  Molality  Activity     Gamma   cm³/mol

   OH-             1.309e-07   9.968e-08    -6.883    -7.001    -0.118     (0)  
   H+              1.213e-07   1.001e-07    -6.916    -7.000    -0.083      0.00
   H2O             5.551e+01   9.966e-01     1.744    -0.001     0.000     18.07
Cl            1.001e-01
   Cl-             1.001e-01   7.647e-02    -1.000    -1.116    -0.117     (0)  
Cl_tr         4.997e-07
   Cl_tr-          4.997e-07   4.997e-07    -6.301    -6.301    -0.000     (0)  
H(0)          0.000e+00
   H2              0.000e+00   0.000e+00   -40.993   -40.983     0.010     (0)  
Hto           5.000e-07
   Hto             5.000e-07   5.000e-07    -6.301    -6.301     0.000     (0)  
Na            1.001e-01
   Na+             1.001e-01   7.832e-02    -1.000    -1.106    -0.106     (0)  
Na_tr         4.993e-07
   Na_tr+          4.993e-07   4.993e-07    -6.302    -6.302    -0.000     (0)  
O(0)          7.491e-11
   O2              3.746e-11   3.833e-11   -10.426   -10.416     0.010     (0)  
Sr_tr         4.985e-07
   Sr_tr+2         4.985e-07   4.985e-07    -6.302    -6.302    -0.000     (0)  

------------------------------Saturation indices-------------------------------

  Phase               SI** log IAP   log K(298 K,   1 atm)

  A_cl              6.59     -7.41  -14.00  NaCl_tr
  A_hto             8.70     -6.30  -15.00  Hto
  A_na              6.58     -7.42  -14.00  Na_trCl
  A_sr              5.46     -8.54  -14.00  Sr_trCl2
  H2(g)           -37.83    -40.98   -3.15  H2
  H2O(g)           -1.51     -0.00    1.51  H2O
  Halite           -3.80     -2.22    1.58  NaCl
  O2(g)            -7.52    -10.42   -2.89  O2

**For a gas, SI = log10(fugacity). Fugacity = pressure * phi / 1 atm.
  For ideal gases, phi = 1.

Using solution 7.	Solution after simulation 11.
Using surface 7.	
Using pure phase assemblage 7.	Pure-phase assemblage after simulation 11.

------------------------------Surface composition------------------------------

Diffuse Double Layer Surface-Complexation Model

Su            
	  1.585e-11  Surface + diffuse layer charge, eq
	 -5.000e-01  Surface charge, eq
	 -4.825e+04  sigma, C/m²
	 -7.590e-01  psi, V
	  2.954e+01  -F*psi/RT
	  6.761e+12  exp(-F*psi/RT)
	  1.000e+00  specific area, m²/g
	  1.000e+00  m² for   1.000e+00 g

	Water in diffuse layer: 5.000e-01 kg, 100.0% of total DDL-water.

	Total moles in diffuse layer (excluding water), Donnan calculation.
	Donnan Layer potential, psi_DL = -5.939e-02 V.
	Boltzmann factor, exp(-psi_DL * F / RT) = 1.009e+01 (= c_DL / c_free if z is +1).

	Element       	     Moles
	Cl            	  4.9562e-03
	Cl_tr         	  1.4854e-08
	H             	  6.1834e-07
	Hto           	  1.5000e-07
	Na            	  5.0492e-01
	Na_tr         	  1.5115e-06
	O             	  6.5234e-09
	Sr_tr         	  1.5230e-05

Su            
	  5.000e-01  moles
	                                   Mole                     Log
	Species               Moles    Fraction    Molality    Molality

	Su-               5.000e-01       1.000   1.000e+00       0.000

-----------------------------Solution composition------------------------------

	Elements           Molality       Moles

	Cl                1.001e-01   5.003e-02
	Cl_tr             2.999e-07   1.499e-07
	Hto               3.000e-07   1.500e-07
	Na                1.000e-01   5.002e-02
	Na_tr             2.995e-07   1.498e-07
	Sr_tr             2.990e-07   1.495e-07

----------------------------Description of solution----------------------------

                                       pH  =   7.000      Charge balance
                                       pe  =  11.918      Adjusted to redox equilibrium
                        Activity of water  =   0.997
                 Ionic strength (mol/kgw)  =   1.001e-01
                       Mass of water (kg)  =   5.000e-01
                 Total alkalinity (eq/kg)  =   9.685e-09
                         Temperature (°C)  =  25.00
                  Electrical balance (eq)  =   3.629e-09
 Percent error, 100*(Cat-|An|)/(Cat+|An|)  =   0.00
                               Iterations  =   0 (10 overall)
                                  Total H  = 5.550622e+01
                                  Total O  = 2.775311e+01

----------------------------Distribution of species----------------------------

                                               Log       Log       Log    mole V
   Species          Molality    Activity  Molality  Activity     Gamma   cm³/mol

   OH-             1.309e-07   9.970e-08    -6.883    -7.001    -0.118     (0)  
   H+              1.212e-07   1.001e-07    -6.916    -7.000    -0.083      0.00
   H2O             5.551e+01   9.966e-01     1.744    -0.001     0.000     18.07
Cl            1.001e-01
   Cl-             1.001e-01   7.646e-02    -1.000    -1.117    -0.117     (0)  
Cl_tr         2.999e-07
   Cl_tr-          2.999e-07   2.999e-07    -6.523    -6.523    -0.000     (0)  
H(0)          0.000e+00
   H2              0.000e+00   0.000e+00   -40.996   -40.986     0.010     (0)  
Hto           3.000e-07
   Hto             3.000e-07   3.000e-07    -6.523    -6.523     0.000     (0)  
Na            1.000e-01
   Na+             1.000e-01   7.830e-02    -1.000    -1.106    -0.106     (0)  
Na_tr         2.995e-07
   Na_tr+          2.995e-07   2.995e-07    -6.524    -6.524    -0.000     (0)  
O(0)          7.570e-11
   O2              3.785e-11   3.873e-11   -10.422   -10.412     0.010     (0)  
Sr_tr         2.990e-07
   Sr_tr+2         2.990e-07   2.990e-07    -6.524    -6.524    -0.000     (0)  

------------------------------Saturation indices-------------------------------

  Phase               SI** log IAP   log K(298 K,   1 atm)

  A_cl              6.37     -7.63  -14.00  NaCl_tr
  A_hto             8.48     -6.52  -15.00  Hto
  A_na              6.36     -7.64  -14.00  Na_trCl
  A_sr              5.24     -8.76  -14.00  Sr_trCl2
  H2(g)           -37.84    -40.99   -3.15  H2
  H2O(g)           -1.51     -0.00    1.51  H2O
  Halite           -3.80     -2.22    1.58  NaCl
  O2(g)            -7.52    -10.41   -2.89  O2

**For a gas, SI = log10(fugacity). Fugacity = pressure * phi / 1 atm.
  For ideal gases, phi = 1.

Using solution 8.	Solution after simulation 11.
Using surface 8.	
Using pure phase assemblage 8.	Pure-phase assemblage after simulation 11.

------------------------------Surface composition------------------------------

Diffuse Double Layer Surface-Complexation Model

Su            
	  1.584e-11  Surface + diffuse layer charge, eq
	 -5.000e-01  Surface charge, eq
	 -4.825e+04  sigma, C/m²
	 -7.590e-01  psi, V
	  2.954e+01  -F*psi/RT
	  6.763e+12  exp(-F*psi/RT)
	  1.000e+00  specific area, m²/g
	  1.000e+00  m² for   1.000e+00 g

	Water in diffuse layer: 5.000e-01 kg, 100.0% of total DDL-water.

	Total moles in diffuse layer (excluding water), Donnan calculation.
	Donnan Layer potential, psi_DL = -5.940e-02 V.
	Boltzmann factor, exp(-psi_DL * F / RT) = 1.010e+01 (= c_DL / c_free if z is +1).

	Element       	     Moles
	Cl            	  4.9536e-03
	Cl_tr         	  4.9507e-09
	H             	  6.1837e-07
	Hto           	  5.0000e-08
	Na            	  5.0494e-01
	Na_tr         	  5.0385e-07
	O             	  6.5231e-09
	Sr_tr         	  5.0769e-06

Su            
	  5.000e-01  moles
	                                   Mole                     Log
	Species               Moles    Fraction    Molality    Molality

	Su-               5.000e-01       1.000   1.000e+00       0.000

-----------------------------Solution composition------------------------------

	Elements           Molality       Moles

	Cl                1.000e-01   5.001e-02
	Cl_tr             9.997e-08   4.998e-08
	Hto               1.000e-07   5.000e-08
	Na                1.000e-01   5.001e-02
	Na_tr             9.981e-08   4.990e-08
	Sr_tr             9.961e-08   4.981e-08

----------------------------Description of solution----------------------------

                                       pH  =   7.000      Charge balance
                                       pe  =  11.919      Adjusted to redox equilibrium
                        Activity of water  =   0.997
                 Ionic strength (mol/kgw)  =   1.000e-01
                       Mass of water (kg)  =   5.000e-01
                 Total alkalinity (eq/kg)  =   9.738e-09
                         Temperature (°C)  =  25.00
                  Electrical balance (eq)  =   5.408e-09
 Percent error, 100*(Cat-|An|)/(Cat+|An|)  =   0.00
                               Iterations  =   0 (10 overall)
                                  Total H  = 5.550622e+01
                                  Total O  = 2.775311e+01

----------------------------Distribution of species----------------------------

                                               Log       Log       Log    mole V
   Species          Molality    Activity  Molality  Activity     Gamma   cm³/mol

   OH-             1.309e-07   9.973e-08    -6.883    -7.001    -0.118     (0)  
   H+              1.212e-07   1.000e-07    -6.916    -7.000    -0.083      0.00
   H2O             5.551e+01   9.966e-01     1.744    -0.001     0.000     18.07
Cl            1.000e-01
   Cl-             1.000e-01   7.644e-02    -1.000    -1.117    -0.117     (0)  
Cl_tr         9.997e-08
   Cl_tr-          9.997e-08   9.997e-08    -7.000    -7.000    -0.000     (0)  
H(0)          0.000e+00
   H2              0.000e+00   0.000e+00   -40.997   -40.987     0.010     (0)  
Hto           1.000e-07
   Hto             1.000e-07   1.000e-07    -7.000    -7.000     0.000     (0)  
Na            1.000e-01
   Na+             1.000e-01   7.828e-02    -1.000    -1.106    -0.106     (0)  
Na_tr         9.981e-08
   Na_tr+          9.981e-08   9.981e-08    -7.001    -7.001    -0.000     (0)  
O(0)          7.618e-11
   O2              3.809e-11   3.898e-11   -10.419   -10.409     0.010     (0)  
Sr_tr         9.961e-08
   Sr_tr+2         9.961e-08   9.961e-08    -7.002    -7.002    -0.000     (0)  

------------------------------Saturation indices-------------------------------

  Phase               SI** log IAP   log K(298 K,   1 atm)

  A_cl              5.89     -8.11  -14.00  NaCl_tr
  A_hto             8.00     -7.00  -15.00  Hto
  A_na              5.88     -8.12  -14.00  Na_trCl
  A_sr              4.76     -9.24  -14.00  Sr_trCl2
  H2(g)           -37.84    -40.99   -3.15  H2
  H2O(g)           -1.51     -0.00    1.51  H2O
  Halite           -3.81     -2.22    1.58  NaCl
  O2(g)            -7.52    -10.41   -2.89  O2

**For a gas, SI = log10(fugacity). Fugacity = pressure * phi / 1 atm.
  For ideal gases, phi = 1.

Using solution 9.	Solution after simulation 11.
Using surface 9.	
Using pure phase assemblage 9.	Pure-phase assemblage after simulation 11.

-------------------------------Phase assemblage--------------------------------

                                                      Moles in assemblage
Phase               SI  log IAP  log K(T, P)   Initial       Final       Delta

A_cl              0.00   -14.00    -14.00    3.388e-06   3.773e-06   3.855e-07
A_hto             0.00   -15.00    -15.00    6.518e-06   7.255e-06   7.368e-07
A_na              0.00   -14.00    -14.00    3.804e-05   4.232e-05   4.275e-06
A_sr              0.00   -14.00    -14.00    3.571e-04   3.970e-04   3.993e-05

------------------------------Surface composition------------------------------

Diffuse Double Layer Surface-Complexation Model

Su            
	 -8.362e-13  Surface + diffuse layer charge, eq
	 -5.000e-01  Surface charge, eq
	 -4.825e+04  sigma, C/m²
	 -7.590e-01  psi, V
	  2.954e+01  -F*psi/RT
	  6.764e+12  exp(-F*psi/RT)
	  1.000e+00  specific area, m²/g
	  1.000e+00  m² for   1.000e+00 g

	Water in diffuse layer: 5.000e-01 kg, 100.0% of total DDL-water.

	Total moles in diffuse layer (excluding water), Donnan calculation.
	Donnan Layer potential, psi_DL = -5.941e-02 V.
	Boltzmann factor, exp(-psi_DL * F / RT) = 1.010e+01 (= c_DL / c_free if z is +1).

	Element       	     Moles
	Cl            	  4.9524e-03
	Cl_tr         	  6.3261e-15
	H             	  6.1838e-07
	Hto           	  5.0000e-16
	Na            	  5.0495e-01
	Na_tr         	  6.6056e-13
	O             	  6.5229e-09
	Sr_tr         	  8.7270e-11

Su            
	  5.000e-01  moles
	                                   Mole                     Log
	Species               Moles    Fraction    Molality    Molality

	Su-               5.000e-01       1.000   1.000e+00       0.000

-----------------------------Solution composition------------------------------

	Elements           Molality       Moles

	Cl                1.000e-01   5.001e-02
	Cl_tr             1.278e-13   6.388e-14
	Hto               1.000e-15   5.000e-16
	Na                1.000e-01   5.001e-02
	Na_tr             1.308e-13   6.542e-14
	Sr_tr             1.712e-12   8.559e-13

----------------------------Description of solution----------------------------

                                       pH  =   7.000      Charge balance
                                       pe  =  11.919      Adjusted to redox equilibrium
                        Activity of water  =   0.997
                 Ionic strength (mol/kgw)  =   1.000e-01
                       Mass of water (kg)  =   5.000e-01
                 Total alkalinity (eq/kg)  =   9.764e-09
                         Temperature (°C)  =  25.00
                  Electrical balance (eq)  =   3.439e-08
 Percent error, 100*(Cat-|An|)/(Cat+|An|)  =   0.00
                               Iterations  =   1 (11 overall)
                                  Total H  = 5.550622e+01
                                  Total O  = 2.775311e+01

----------------------------Distribution of species----------------------------

                                               Log       Log       Log    mole V
   Species          Molality    Activity  Molality  Activity     Gamma   cm³/mol

   OH-             1.310e-07   9.974e-08    -6.883    -7.001    -0.118     (0)  
   H+              1.212e-07   1.000e-07    -6.917    -7.000    -0.083      0.00
   H2O             5.551e+01   9.966e-01     1.744    -0.001     0.000     18.07
Cl            1.000e-01
   Cl-             1.000e-01   7.643e-02    -1.000    -1.117    -0.117     (0)  
Cl_tr         1.278e-13
   Cl_tr-          1.278e-13   1.278e-13   -12.894   -12.894    -0.000     (0)  
H(0)          0.000e+00
   H2              0.000e+00   0.000e+00   -40.997   -40.987     0.010     (0)  
Hto           1.000e-15
   Hto             1.000e-15   1.000e-15   -15.000   -15.000     0.000     (0)  
Na            1.000e-01
   Na+             1.000e-01   7.827e-02    -1.000    -1.106    -0.106     (0)  
Na_tr         1.308e-13
   Na_tr+          1.308e-13   1.308e-13   -12.883   -12.883    -0.000     (0)  
O(0)          7.625e-11
   O2              3.813e-11   3.901e-11   -10.419   -10.409     0.010     (0)  
Sr_tr         1.712e-12
   Sr_tr+2         1.712e-12   1.712e-12   -11.767   -11.767    -0.000     (0)  

------------------------------Saturation indices-------------------------------

  Phase               SI** log IAP   log K(298 K,   1 atm)

  A_cl              0.00    -14.00  -14.00  NaCl_tr
  A_hto             0.00    -15.00  -15.00  Hto
  A_na              0.00    -14.00  -14.00  Na_trCl
  A_sr              0.00    -14.00  -14.00  Sr_trCl2
  H2(g)           -37.84    -40.99   -3.15  H2
  H2O(g)           -1.51     -0.00    1.51  H2O
  Halite           -3.81     -2.22    1.58  NaCl
  O2(g)            -7.52    -10.41   -2.89  O2

**For a gas, SI = log10(fugacity). Fugacity = pressure * phi / 1 atm.
  For ideal gases, phi = 1.

------------------
End of simulation.
------------------

-------------------------------------
Reading input data for simulation 12.
-------------------------------------

