WARNING: Database file from DATABASE keyword is used; command line argument ignored.
   Input file: de
  Output file: de.out
Database file: ../database/phreeqc.dat

------------------
Reading data base.
------------------

	SOLUTION_MASTER_SPECIES
	SOLUTION_SPECIES
	PHASES
	EXCHANGE_MASTER_SPECIES
	EXCHANGE_SPECIES
	SURFACE_MASTER_SPECIES
	SURFACE_SPECIES
	RATES
	END
------------------------------------
Reading input data for simulation 1.
------------------------------------

	DATABASE ../database/phreeqc.dat
	SELECTED_OUTPUT 101
	    file                 de_101.sel
	USER_PUNCH 101
	    headings Mu SC
	    start
	10 PUNCH STR_F$(MU, 20, 12)
	20 PUNCH STR_F$(SC, 20, 10)
	    end
	 SOLUTION_SPECIES
	  H2O + 0.01e- = H2O-0.01  # For program convergence
	  log_k  -9.0 
	 EQUILIBRIUM_PHASES 1-50   # Define sediment
	  Goethite 3.0  10.7e-3    # Goetite equilibrium, SI, moles (100 ppm Fe in solid)
	 SOLUTION 1-50             # Define groundwater, 50 cells
	  temp 10
	  pH   7.0
	  pe   0.0  Goethite 3.0
	  Ca   3
	  C(4) 6 charge
	  Fe   0.1
	  Cl   1e-3                # Cl added as tracer
	END
-------------------------------------------
Beginning of initial solution calculations.
-------------------------------------------

Initial solution 1.	

-----------------------------Solution composition------------------------------

	Elements           Molality       Moles

	C(4)              7.786e-03   7.786e-03  Charge balance
	Ca                3.000e-03   3.000e-03
	Cl                1.000e-06   1.000e-06
	Fe                1.000e-04   1.000e-04

----------------------------Description of solution----------------------------

                                       pH  =   7.000    
                                       pe  =  -0.721      Equilibrium with Goethite
      Specific Conductance (µS/cm,  10°C)  = 380
                          Density (g/cm³)  =   1.00013
                               Volume (L)  =   1.00044
                        Activity of water  =   1.000
                 Ionic strength (mol/kgw)  =   9.002e-03
                       Mass of water (kg)  =   1.000e+00
                 Total alkalinity (eq/kg)  =   6.199e-03
                       Total CO2 (mol/kg)  =   7.786e-03
                         Temperature (°C)  =  10.00
                  Electrical balance (eq)  =   8.947e-18
 Percent error, 100*(Cat-|An|)/(Cat+|An|)  =   0.00
                               Iterations  =   5
                                  Total H  = 1.110186e+02
                                  Total O  = 5.552798e+01

----------------------------Distribution of species----------------------------

                                               Log       Log       Log    mole V
   Species          Molality    Activity  Molality  Activity     Gamma   cm³/mol

   H+              1.089e-07   1.000e-07    -6.963    -7.000    -0.037      0.00
   OH-             3.244e-08   2.941e-08    -7.489    -7.531    -0.043     -4.95
   H2O-0.01        1.017e-09   1.017e-09    -8.993    -8.993    -0.000     (0)  
   H2O             5.551e+01   9.998e-01     1.744    -0.000     0.000     18.02
C(4)          7.786e-03
   HCO3-           6.040e-03   5.502e-03    -2.219    -2.259    -0.040     23.22
   CO2             1.596e-03   1.599e-03    -2.797    -2.796     0.001     33.66
   CaHCO3+         1.113e-04   1.015e-04    -3.954    -3.994    -0.040      8.97
   FeHCO3+         2.895e-05   2.629e-05    -4.538    -4.580    -0.042     (0)  
   CaCO3           4.844e-06   4.854e-06    -5.315    -5.314     0.001    -14.66
   CO3-2           2.598e-06   1.789e-06    -5.585    -5.747    -0.162     -7.15
   FeCO3           2.046e-06   2.051e-06    -5.689    -5.688     0.001     (0)  
   (CO2)2          2.730e-08   2.736e-08    -7.564    -7.563     0.001     67.32
Ca            3.000e-03
   Ca+2            2.884e-03   1.985e-03    -2.540    -2.702    -0.162    -18.27
   CaHCO3+         1.113e-04   1.015e-04    -3.954    -3.994    -0.040      8.97
   CaCO3           4.844e-06   4.854e-06    -5.315    -5.314     0.001    -14.66
   CaOH+           3.627e-09   3.294e-09    -8.440    -8.482    -0.042     (0)  
Cl            1.000e-06
   Cl-             9.999e-07   9.071e-07    -6.000    -6.042    -0.042     17.42
   FeCl+           6.587e-11   5.983e-11   -10.181   -10.223    -0.042     (0)  
   FeCl+2          8.836e-24   6.062e-24   -23.054   -23.217    -0.164     (0)  
   FeCl2+          4.453e-29   4.053e-29   -28.351   -28.392    -0.041     (0)  
   FeCl3           3.669e-36   3.676e-36   -35.436   -35.435     0.001     (0)  
Fe(2)         1.000e-04
   Fe+2            6.896e-05   4.778e-05    -4.161    -4.321    -0.159    -23.15
   FeHCO3+         2.895e-05   2.629e-05    -4.538    -4.580    -0.042     (0)  
   FeCO3           2.046e-06   2.051e-06    -5.689    -5.688     0.001     (0)  
   FeOH+           5.099e-08   4.641e-08    -7.293    -7.333    -0.041     (0)  
   FeCl+           6.587e-11   5.983e-11   -10.181   -10.223    -0.042     (0)  
   Fe(OH)2         9.977e-13   9.997e-13   -12.001   -12.000     0.001     (0)  
   Fe(OH)3-        3.494e-16   3.180e-16   -15.457   -15.498    -0.041     (0)  
Fe(3)         2.956e-11
   Fe(OH)2+        1.857e-11   1.691e-11   -10.731   -10.772    -0.040     (0)  
   Fe(OH)3         1.092e-11   1.094e-11   -10.962   -10.961     0.001     (0)  
   Fe(OH)4-        5.806e-14   5.290e-14   -13.236   -13.277    -0.040     (0)  
   FeOH+2          1.356e-14   9.301e-15   -13.868   -14.031    -0.164     (0)  
   Fe+3            7.851e-19   3.651e-19   -18.105   -18.438    -0.333     (0)  
   FeCl+2          8.836e-24   6.062e-24   -23.054   -23.217    -0.164     (0)  
   Fe2(OH)2+4      2.086e-26   4.472e-27   -25.681   -26.350    -0.669     (0)  
   FeCl2+          4.453e-29   4.053e-29   -28.351   -28.392    -0.041     (0)  
   Fe3(OH)4+5      7.527e-34   6.787e-35   -33.123   -34.168    -1.045     (0)  
   FeCl3           3.669e-36   3.676e-36   -35.436   -35.435     0.001     (0)  
H(0)          4.574e-16
   H2              2.287e-16   2.292e-16   -15.641   -15.640     0.001     28.63
O(0)          0.000e+00
   O2              0.000e+00   0.000e+00   -66.199   -66.198     0.001     28.95

------------------------------Saturation indices-------------------------------

  Phase               SI** log IAP   log K(283 K,   1 atm)

  Aragonite        -0.19     -8.45   -8.26  CaCO3
  Calcite          -0.04     -8.45   -8.41  CaCO3
  CO2(g)           -1.53     -2.80   -1.27  CO2
  Fe(OH)3(a)       -2.33      2.56    4.89  Fe(OH)3
  Goethite          3.00      2.56   -0.44  FeOOH
  H2(g)           -12.58    -15.64   -3.05  H2
  H2O(g)           -1.91     -0.00    1.91  H2O
  Hematite          7.93      5.12   -2.81  Fe2O3
  O2(g)           -63.43    -66.20   -2.77  O2
  Siderite          0.73    -10.07  -10.79  FeCO3

**For a gas, SI = log10(fugacity). Fugacity = pressure * phi / 1 atm.
  For ideal gases, phi = 1.

-----------------------------------------
Beginning of batch-reaction calculations.
-----------------------------------------

Reaction step 1.

Using solution 1.	
Using pure phase assemblage 1.	

-------------------------------Phase assemblage--------------------------------

                                                      Moles in assemblage
Phase               SI  log IAP  log K(T, P)   Initial       Final       Delta

Goethite          3.00     2.56     -0.44    1.070e-02   1.070e-02  -1.797e-15

-----------------------------Solution composition------------------------------

	Elements           Molality       Moles

	C                 7.786e-03   7.786e-03
	Ca                3.000e-03   3.000e-03
	Cl                1.000e-06   1.000e-06
	Fe                1.000e-04   1.000e-04

----------------------------Description of solution----------------------------

                                       pH  =   7.000      Charge balance
                                       pe  =  -0.721      Adjusted to redox equilibrium
      Specific Conductance (µS/cm,  10°C)  = 380
                          Density (g/cm³)  =   1.00013
                               Volume (L)  =   1.00044
                        Activity of water  =   1.000
                 Ionic strength (mol/kgw)  =   9.002e-03
                       Mass of water (kg)  =   1.000e+00
                 Total alkalinity (eq/kg)  =   6.199e-03
                       Total CO2 (mol/kg)  =   7.786e-03
                         Temperature (°C)  =  10.00
                  Electrical balance (eq)  =  -2.063e-17
 Percent error, 100*(Cat-|An|)/(Cat+|An|)  =  -0.00
                               Iterations  =   1
                                  Total H  = 1.110186e+02
                                  Total O  = 5.552798e+01

----------------------------Distribution of species----------------------------

                                               Log       Log       Log    mole V
   Species          Molality    Activity  Molality  Activity     Gamma   cm³/mol

   H+              1.089e-07   1.000e-07    -6.963    -7.000    -0.037      0.00
   OH-             3.244e-08   2.941e-08    -7.489    -7.531    -0.043     -4.95
   H2O-0.01        1.017e-09   1.017e-09    -8.993    -8.993    -0.000     (0)  
   H2O             5.551e+01   9.998e-01     1.744    -0.000     0.000     18.02
C(-4)         2.888e-27
   CH4             2.888e-27   2.894e-27   -26.539   -26.538     0.001     33.98
C(4)          7.786e-03
   HCO3-           6.040e-03   5.502e-03    -2.219    -2.259    -0.040     23.22
   CO2             1.596e-03   1.599e-03    -2.797    -2.796     0.001     33.66
   CaHCO3+         1.113e-04   1.015e-04    -3.954    -3.994    -0.040      8.97
   FeHCO3+         2.895e-05   2.629e-05    -4.538    -4.580    -0.042     (0)  
   CaCO3           4.844e-06   4.854e-06    -5.315    -5.314     0.001    -14.66
   CO3-2           2.598e-06   1.789e-06    -5.585    -5.747    -0.162     -7.15
   FeCO3           2.046e-06   2.051e-06    -5.689    -5.688     0.001     (0)  
   (CO2)2          2.730e-08   2.736e-08    -7.564    -7.563     0.001     67.32
Ca            3.000e-03
   Ca+2            2.884e-03   1.985e-03    -2.540    -2.702    -0.162    -18.27
   CaHCO3+         1.113e-04   1.015e-04    -3.954    -3.994    -0.040      8.97
   CaCO3           4.844e-06   4.854e-06    -5.315    -5.314     0.001    -14.66
   CaOH+           3.627e-09   3.294e-09    -8.440    -8.482    -0.042     (0)  
Cl            1.000e-06
   Cl-             9.999e-07   9.071e-07    -6.000    -6.042    -0.042     17.42
   FeCl+           6.587e-11   5.983e-11   -10.181   -10.223    -0.042     (0)  
   FeCl+2          8.836e-24   6.062e-24   -23.054   -23.217    -0.164     (0)  
   FeCl2+          4.453e-29   4.053e-29   -28.351   -28.392    -0.041     (0)  
   FeCl3           3.669e-36   3.676e-36   -35.436   -35.435     0.001     (0)  
Fe(2)         1.000e-04
   Fe+2            6.896e-05   4.778e-05    -4.161    -4.321    -0.159    -23.15
   FeHCO3+         2.895e-05   2.629e-05    -4.538    -4.580    -0.042     (0)  
   FeCO3           2.046e-06   2.051e-06    -5.689    -5.688     0.001     (0)  
   FeOH+           5.099e-08   4.641e-08    -7.293    -7.333    -0.041     (0)  
   FeCl+           6.587e-11   5.983e-11   -10.181   -10.223    -0.042     (0)  
   Fe(OH)2         9.977e-13   9.997e-13   -12.001   -12.000     0.001     (0)  
   Fe(OH)3-        3.494e-16   3.180e-16   -15.457   -15.498    -0.041     (0)  
Fe(3)         2.956e-11
   Fe(OH)2+        1.857e-11   1.691e-11   -10.731   -10.772    -0.040     (0)  
   Fe(OH)3         1.092e-11   1.094e-11   -10.962   -10.961     0.001     (0)  
   Fe(OH)4-        5.806e-14   5.290e-14   -13.236   -13.277    -0.040     (0)  
   FeOH+2          1.356e-14   9.301e-15   -13.868   -14.031    -0.164     (0)  
   Fe+3            7.851e-19   3.651e-19   -18.105   -18.438    -0.333     (0)  
   FeCl+2          8.836e-24   6.062e-24   -23.054   -23.217    -0.164     (0)  
   Fe2(OH)2+4      2.086e-26   4.472e-27   -25.681   -26.350    -0.669     (0)  
   FeCl2+          4.453e-29   4.053e-29   -28.351   -28.392    -0.041     (0)  
   Fe3(OH)4+5      7.527e-34   6.787e-35   -33.123   -34.168    -1.045     (0)  
   FeCl3           3.669e-36   3.676e-36   -35.436   -35.435     0.001     (0)  
H(0)          4.574e-16
   H2              2.287e-16   2.292e-16   -15.641   -15.640     0.001     28.63
O(0)          0.000e+00
   O2              0.000e+00   0.000e+00   -66.199   -66.198     0.001     28.95

------------------------------Saturation indices-------------------------------

  Phase               SI** log IAP   log K(283 K,   1 atm)

  Aragonite        -0.19     -8.45   -8.26  CaCO3
  Calcite          -0.04     -8.45   -8.41  CaCO3
  CH4(g)          -23.91    -26.54   -2.63  CH4
  CO2(g)           -1.53     -2.80   -1.27  CO2
  Fe(OH)3(a)       -2.33      2.56    4.89  Fe(OH)3
  Goethite          3.00      2.56   -0.44  FeOOH
  H2(g)           -12.58    -15.64   -3.05  H2
  H2O(g)           -1.91     -0.00    1.91  H2O
  Hematite          7.93      5.12   -2.81  Fe2O3
  O2(g)           -63.43    -66.20   -2.77  O2
  Siderite          0.73    -10.07  -10.79  FeCO3

**For a gas, SI = log10(fugacity). Fugacity = pressure * phi / 1 atm.
  For ideal gases, phi = 1.

------------------
End of simulation.
------------------

------------------------------------
Reading input data for simulation 2.
------------------------------------

	 EXCHANGE 1-50
	  X    0.06
	  equilibrate 1
	 SURFACE  1-50
	  Hfo_wOH Goethite 0.2 5.3e4 # Coupled to Goethite, proportion, m2/mol
	  Hfo_sOH Goethite 1e-3      # Coupled to Goethite, proportion
	  equilibrate 1
	END
-------------------------------------------------------
Beginning of initial exchange-composition calculations.
-------------------------------------------------------

Exchange 1.	

X                6.000e-02 mol

	                               Equiv-    Equivalent      Log 
	Species             Moles      alents      Fraction     Gamma

	CaX2              2.964e-02   5.928e-02   9.880e-01    -0.162
	FeX2              3.608e-04   7.216e-04   1.203e-02    -0.159

------------------------------------------------------
Beginning of initial surface-composition calculations.
------------------------------------------------------

Surface 1.	

Diffuse Double Layer Surface-Complexation Model

Hfo           
	  2.186e-05  Surface charge, eq
	  3.720e-03  sigma, C/m²
	  1.589e-02  psi, V
	 -6.511e-01  -F*psi/RT
	  5.215e-01  exp(-F*psi/RT)
	  5.300e+04  specific area, m²/mol Goethite
	  5.671e+02  m² for   1.070e-02 moles of Goethite


Hfo_s         
	  1.070e-05  moles	[0.001 mol/(mol Goethite)]
	                                   Mole                     Log
	Species               Moles    Fraction    Molality    Molality

	Hfo_sOHCa+2       6.707e-06       0.627   6.707e-06      -5.173
	Hfo_sOFe+         3.721e-06       0.348   3.721e-06      -5.429
	Hfo_sOH2+         1.354e-07       0.013   1.354e-07      -6.869
	Hfo_sOH           1.331e-07       0.012   1.331e-07      -6.876
	Hfo_sO-           2.999e-09       0.000   2.999e-09      -8.523

Hfo_w         
	  2.140e-03  moles	[0.2 mol/(mol Goethite)]
	                                   Mole                     Log
	Species               Moles    Fraction    Molality    Molality

	Hfo_wHCO3         1.447e-03       0.676   1.447e-03      -2.840
	Hfo_wCO3-         2.417e-04       0.113   2.417e-04      -3.617
	Hfo_wOH2+         1.972e-04       0.092   1.972e-04      -3.705
	Hfo_wOH           1.939e-04       0.091   1.939e-04      -3.712
	Hfo_wOFe+         5.059e-05       0.024   5.059e-05      -4.296
	Hfo_wO-           4.370e-06       0.002   4.370e-06      -5.360
	Hfo_wOCa+         2.836e-06       0.001   2.836e-06      -5.547
	Hfo_wOFeOH        2.611e-06       0.001   2.611e-06      -5.583

------------------
End of simulation.
------------------

------------------------------------
Reading input data for simulation 3.
------------------------------------

	 PRINT
	  reset false
WARNING: Cell-lengths were read for 1 cells. Last value is used till cell 15.
WARNING: Dispersivities were read for 1 cells. Last value is used till cell 15.
-------------------------------
End of Run after 0.604 Seconds.
-------------------------------

