   Input file: deb1
  Output file: deb1.out
Database file: ../database/phreeqc.dat

------------------
Reading data base.
------------------

	SOLUTION_MASTER_SPECIES
	SOLUTION_SPECIES
	PHASES
	EXCHANGE_MASTER_SPECIES
	EXCHANGE_SPECIES
	SURFACE_MASTER_SPECIES
	SURFACE_SPECIES
	RATES
	END
------------------------------------
Reading input data for simulation 1.
------------------------------------

	DATABASE ../database/phreeqc.dat
	KNOBS
	 iterations 400
	SURFACE_MASTER_SPECIES
	 Su Su-
	SURFACE_SPECIES
	 Su- = Su-
	 log_k 0
	SOLUTION 0
	 water 1
	SOLUTION 1-10
	 pH 7.0
	 Na 1
	 Cl 1 charge
	 water 0.3
	SURFACE 1-10
	 Su 1e-3 1e4 1
	 equilibrate 1
	 donnan d 1 l 0.9 v 1# 1e-9
	END
-------------------------------------------
Beginning of initial solution calculations.
-------------------------------------------

Initial solution 0.	

-----------------------------Solution composition------------------------------

	Elements           Molality       Moles

	Pure water     

----------------------------Description of solution----------------------------

                                       pH  =   7.000    
                                       pe  =   4.000    
       Specific Conductance (uS/cm, 25 oC) = 0
                          Density (g/cm3)  =   0.99704
                        Activity of water  =   1.000
                           Ionic strength  =   1.002e-07
                       Mass of water (kg)  =   1.000e+00
                 Total alkalinity (eq/kg)  =   2.208e-10
                    Total carbon (mol/kg)  =   0.000e+00
                       Total CO2 (mol/kg)  =   0.000e+00
                      Temperature (deg C)  =  25.00
                  Electrical balance (eq)  =  -2.208e-10
 Percent error, 100*(Cat-|An|)/(Cat+|An|)  =  -0.11
                               Iterations  =   0
                                  Total H  = 1.110124e+02
                                  Total O  = 5.550622e+01

----------------------------Distribution of species----------------------------

                                               Log       Log       Log    mole V
   Species          Molality    Activity  Molality  Activity     Gamma   cm3/mol

   OH-             1.003e-07   1.002e-07    -6.999    -6.999    -0.000     -4.11
   H+              1.001e-07   1.000e-07    -7.000    -7.000    -0.000      0.00
   H2O             5.551e+01   1.000e+00     1.744     0.000     0.000     18.07
H(0)          1.416e-25
   H2              7.079e-26   7.079e-26   -25.150   -25.150     0.000     28.61
O(0)          0.000e+00
   O2              0.000e+00   0.000e+00   -42.080   -42.080     0.000     30.40

------------------------------Saturation indices-------------------------------

	Phase               SI   log IAP   log K(298 K,   1 atm)

	H2(g)           -22.05    -25.15   -3.10  H2
	H2O(g)           -1.50      0.00    1.50  H2O
	O2(g)           -39.19    -42.08   -2.89  O2


Initial solution 1.	

-----------------------------Solution composition------------------------------

	Elements           Molality       Moles

	Cl                1.000e-03   3.000e-04  Charge balance
	Na                1.000e-03   3.000e-04

----------------------------Description of solution----------------------------

                                       pH  =   7.000    
                                       pe  =   4.000    
       Specific Conductance (uS/cm, 25 oC) = 123
                          Density (g/cm3)  =   0.99708
                        Activity of water  =   1.000
                           Ionic strength  =   1.000e-03
                       Mass of water (kg)  =   3.000e-01
                 Total alkalinity (eq/kg)  =   4.191e-10
                    Total carbon (mol/kg)  =   0.000e+00
                       Total CO2 (mol/kg)  =   0.000e+00
                      Temperature (deg C)  =  25.00
                  Electrical balance (eq)  =  -2.325e-12
 Percent error, 100*(Cat-|An|)/(Cat+|An|)  =  -0.00
                               Iterations  =   8
                                  Total H  = 3.330373e+01
                                  Total O  = 1.665187e+01

----------------------------Distribution of species----------------------------

                                               Log       Log       Log    mole V
   Species          Molality    Activity  Molality  Activity     Gamma   cm3/mol

   OH-             1.039e-07   1.002e-07    -6.983    -6.999    -0.016     -4.08
   H+              1.035e-07   1.000e-07    -6.985    -7.000    -0.015      0.00
   H2O             5.551e+01   1.000e+00     1.744    -0.000     0.000     18.07
Cl            1.000e-03
   Cl-             1.000e-03   9.648e-04    -3.000    -3.016    -0.016     18.06
H(0)          1.416e-25
   H2              7.078e-26   7.079e-26   -25.150   -25.150     0.000     28.61
Na            1.000e-03
   Na+             1.000e-03   9.651e-04    -3.000    -3.015    -0.015     -1.20
   NaOH            9.670e-21   9.672e-21   -20.015   -20.014     0.000     (0)  
O(0)          0.000e+00
   O2              0.000e+00   0.000e+00   -42.080   -42.080     0.000     30.40

------------------------------Saturation indices-------------------------------

	Phase               SI   log IAP   log K(298 K,   1 atm)

	H2(g)           -22.05    -25.15   -3.10  H2
	H2O(g)           -1.50     -0.00    1.50  H2O
	Halite           -7.61     -6.03    1.58  NaCl
	O2(g)           -39.19    -42.08   -2.89  O2


------------------------------------------------------
Beginning of initial surface-composition calculations.
------------------------------------------------------

Surface 1.	

Su            
	  2.261e-10  Surface + diffuse layer charge, eq
	 -1.000e-03  Surface charge, eq
	 -9.649e-03  sigma, C/m**2
	 -8.653e-02  psi, V
	  3.368e+00  -F*psi/RT
	  2.902e+01  exp(-F*psi/RT)
	  1.000e+04  specific area, m**2/g
	  1.000e+04  m**2 for   1.000e+00 g

	Water in diffuse layer: 9.020e-02 kg, 100.0% of total DDL-water.
	Radius of total pore:   7.804e-08 m; of free pore: 6.843e-08 m.

	Total moles in diffuse layer (excluding water), Donnan calculation 

	Element       	     Moles
	Cl            	  8.0710e-06
	H             	  1.0512e-07
	Na            	  1.0080e-03
	O             	  8.3836e-10

Su            
	  1.000e-03  moles
	                                   Mole                     Log
	Species               Moles    Fraction    Molality    Molality

	Su-               1.000e-03       1.000   3.333e-03      -2.477

-----------------------------------------
Beginning of batch-reaction calculations.
-----------------------------------------

Reaction step 1.

Using solution 0.	
Using surface 1.	

------------------------------Surface composition------------------------------

Su            
	  6.223e-17  Surface + diffuse layer charge, eq
	 -1.000e-03  Surface charge, eq
	 -9.649e-03  sigma, C/m**2
	 -1.888e-01  psi, V
	  7.348e+00  -F*psi/RT
	  1.553e+03  exp(-F*psi/RT)
	  1.000e+04  specific area, m**2/g
	  1.000e+04  m**2 for   1.000e+00 g

	Water in diffuse layer: 6.062e-01 kg, 100.0% of total DDL-water.
	Radius of total pore:   2.180e-07 m; of free pore: 1.453e-07 m.

	Total moles in diffuse layer (excluding water), Donnan calculation 

	Element       	     Moles
	Cl            	  1.0554e-07
	H             	  5.9108e-07
	Na            	  9.9953e-04
	O             	  6.3606e-09

Su            
	  1.000e-03  moles
	                                   Mole                     Log
	Species               Moles    Fraction    Molality    Molality

	Su-               1.000e-03       1.000   2.066e-03      -2.685

-----------------------------Solution composition------------------------------

	Elements           Molality       Moles

	Cl                1.646e-05   7.965e-06
	Na                1.744e-05   8.441e-06

----------------------------Description of solution----------------------------

                                       pH  =   7.993      Charge balance
                                       pe  =  -2.273      Adjusted to redox equilibrium
       Specific Conductance (uS/cm, 25 oC) = 2
                          Density (g/cm3)  =   0.99704
                        Activity of water  =   1.000
                           Ionic strength  =   1.745e-05
                       Mass of water (kg)  =   4.840e-01
                 Total alkalinity (eq/kg)  =   9.817e-07
                    Total carbon (mol/kg)  =   0.000e+00
                       Total CO2 (mol/kg)  =   0.000e+00
                      Temperature (deg C)  =  25.00
                  Electrical balance (eq)  =   5.300e-12
 Percent error, 100*(Cat-|An|)/(Cat+|An|)  =   0.00
                               Iterations  =   3
                                  Total H  = 5.372736e+01
                                  Total O  = 2.686368e+01

----------------------------Distribution of species----------------------------

                                               Log       Log       Log    mole V
   Species          Molality    Activity  Molality  Activity     Gamma   cm3/mol

   OH-             9.919e-07   9.871e-07    -6.004    -6.006    -0.002     -4.11
   H+              1.020e-08   1.015e-08    -7.991    -7.993    -0.002      0.00
   H2O             1.250e+02   1.000e+00     2.097    -0.000     0.000     18.07
Cl            1.646e-05
   Cl-             1.646e-05   1.638e-05    -4.784    -4.786    -0.002     18.04
H(0)          5.138e-15
   H2              2.569e-15   2.569e-15   -14.590   -14.590     0.000     28.61
Na            1.744e-05
   Na+             1.744e-05   1.736e-05    -4.758    -4.761    -0.002     -1.22
   NaOH            1.713e-21   1.713e-21   -20.766   -20.766     0.000     (0)  
O(0)          0.000e+00
   O2              0.000e+00   0.000e+00   -63.200   -63.200     0.000     30.40

------------------------------Saturation indices-------------------------------

	Phase               SI   log IAP   log K(298 K,   1 atm)

	H2(g)           -11.49    -14.59   -3.10  H2
	H2O(g)           -1.50     -0.00    1.50  H2O
	Halite          -11.13     -9.55    1.58  NaCl
	O2(g)           -60.31    -63.20   -2.89  O2


------------------
End of simulation.
------------------

------------------------------------
Reading input data for simulation 2.
------------------------------------

	TRANSPORT
	 cells 10
	 length 1e-9
	 shifts 1 0
	 bcond 1 2
	 timest 1e-9
	 punch_frequency 1
	 multi_d true 1e-9 1#0.547723 0 1
	SELECTED_OUTPUT
WARNING: Cell-lengths were read for 1 cells. Last value is used till cell 10.
WARNING: No dispersivities were read; disp = 0 assumed.
	 file d1.prn
	 reset false
	USER_PUNCH
	 heading dist H2O_aq H2O_edl H2O_tot Na Ca Cl pH
	 start
	 10 punch dist, tot("water"), edl("water"), tot("water") + edl("water"), tot("Na")*1e3, tot("Ca")*1e3, tot("Cl")*1e3 , -la("H+")
	 end
	END
------------------------------------
Beginning of transport calculations.
------------------------------------

-------------------------------
Equilibrating initial solutions
-------------------------------

WARNING: Mass of water is less than 1e-10 kilogram.
The aqueous phase may not be stable relative to given masses of minerals.
WARNING: Numerical method failed with this set of convergence parameters.

WARNING: Trying smaller step size, pe step size 10, 5 ... 

Using solution 1.	
Using surface 1.	

------------------------------Surface composition------------------------------

Su            
	 -8.529e-12  Surface + diffuse layer charge, eq
	 -1.000e-03  Surface charge, eq
	 -9.649e-03  sigma, C/m**2
	 -8.653e-02  psi, V
	  3.368e+00  -F*psi/RT
	  2.902e+01  exp(-F*psi/RT)
	  1.000e+04  specific area, m**2/g
	  1.000e+04  m**2 for   1.000e+00 g

	Water in diffuse layer: 9.020e-02 kg, 100.0% of total DDL-water.
	Radius of total pore:   7.804e-08 m; of free pore: 6.843e-08 m.

	Total moles in diffuse layer (excluding water), Donnan calculation 

	Element       	     Moles
	Cl            	  8.0710e-06
	H             	  1.0512e-07
	Na            	  1.0080e-03
	O             	  8.3836e-10

Su            
	  1.000e-03  moles
	                                   Mole                     Log
	Species               Moles    Fraction    Molality    Molality

	Su-               1.000e-03       1.000   3.333e-03      -2.477

-----------------------------Solution composition------------------------------

	Elements           Molality       Moles

	Cl                1.000e-03   3.000e-04
	Na                1.000e-03   3.000e-04

----------------------------Description of solution----------------------------

                                       pH  =   7.000      Charge balance
                                       pe  =  -1.061      Adjusted to redox equilibrium
       Specific Conductance (uS/cm, 25 oC) = 123
                          Density (g/cm3)  =   0.99708
                        Activity of water  =   1.000
                           Ionic strength  =   1.000e-03
                       Mass of water (kg)  =   3.000e-01
                 Total alkalinity (eq/kg)  =   4.189e-10
                    Total carbon (mol/kg)  =   0.000e+00
                       Total CO2 (mol/kg)  =   0.000e+00
                      Temperature (deg C)  =  25.00
                  Electrical balance (eq)  =   2.238e-10
 Percent error, 100*(Cat-|An|)/(Cat+|An|)  =   0.00
                               Iterations  =   2
                                  Total H  = 3.330373e+01
                                  Total O  = 1.665187e+01

----------------------------Distribution of species----------------------------

                                               Log       Log       Log    mole V
   Species          Molality    Activity  Molality  Activity     Gamma   cm3/mol

   OH-             1.039e-07   1.002e-07    -6.983    -6.999    -0.016     -4.08
   H+              1.035e-07   1.000e-07    -6.985    -7.000    -0.015      0.00
   H2O             7.219e+01   1.000e+00     1.859    -0.000     0.000     18.07
Cl            1.000e-03
   Cl-             1.000e-03   9.648e-04    -3.000    -3.016    -0.016     18.06
H(0)          1.876e-15
   H2              9.379e-16   9.382e-16   -15.028   -15.028     0.000     28.61
Na            1.000e-03
   Na+             1.000e-03   9.651e-04    -3.000    -3.015    -0.015     -1.20
   NaOH            9.670e-21   9.672e-21   -20.015   -20.014     0.000     (0)  
O(0)          0.000e+00
   O2              0.000e+00   0.000e+00   -62.325   -62.325     0.000     30.40

------------------------------Saturation indices-------------------------------

	Phase               SI   log IAP   log K(298 K,   1 atm)

	H2(g)           -11.93    -15.03   -3.10  H2
	H2O(g)           -1.50     -0.00    1.50  H2O
	Halite           -7.61     -6.03    1.58  NaCl
	O2(g)           -59.43    -62.32   -2.89  O2


Using solution 2.	
Using surface 2.	

------------------------------Surface composition------------------------------

Su            
	 -1.221e-13  Surface + diffuse layer charge, eq
	 -1.000e-03  Surface charge, eq
	 -9.649e-03  sigma, C/m**2
	 -8.653e-02  psi, V
	  3.368e+00  -F*psi/RT
	  2.902e+01  exp(-F*psi/RT)
	  1.000e+04  specific area, m**2/g
	  1.000e+04  m**2 for   1.000e+00 g

	Water in diffuse layer: 9.020e-02 kg, 100.0% of total DDL-water.
	Radius of total pore:   7.804e-08 m; of free pore: 6.843e-08 m.

	Total moles in diffuse layer (excluding water), Donnan calculation 

	Element       	     Moles
	Cl            	  8.0710e-06
	H             	  1.0512e-07
	Na            	  1.0080e-03
	O             	  8.3836e-10

Su            
	  1.000e-03  moles
	                                   Mole                     Log
	Species               Moles    Fraction    Molality    Molality

	Su-               1.000e-03       1.000   3.333e-03      -2.477

-----------------------------Solution composition------------------------------

	Elements           Molality       Moles

	Cl                1.000e-03   3.000e-04
	Na                1.000e-03   3.000e-04

----------------------------Description of solution----------------------------

                                       pH  =   7.000      Charge balance
                                       pe  =  -1.070      Adjusted to redox equilibrium
       Specific Conductance (uS/cm, 25 oC) = 123
                          Density (g/cm3)  =   0.99708
                        Activity of water  =   1.000
                           Ionic strength  =   1.000e-03
                       Mass of water (kg)  =   3.000e-01
                 Total alkalinity (eq/kg)  =   4.189e-10
                    Total carbon (mol/kg)  =   0.000e+00
                       Total CO2 (mol/kg)  =   0.000e+00
                      Temperature (deg C)  =  25.00
                  Electrical balance (eq)  =   2.238e-10
 Percent error, 100*(Cat-|An|)/(Cat+|An|)  =   0.00
                               Iterations  =   0
                                  Total H  = 3.330373e+01
                                  Total O  = 1.665187e+01

----------------------------Distribution of species----------------------------

                                               Log       Log       Log    mole V
   Species          Molality    Activity  Molality  Activity     Gamma   cm3/mol

   OH-             1.039e-07   1.002e-07    -6.983    -6.999    -0.016     -4.08
   H+              1.035e-07   1.000e-07    -6.985    -7.000    -0.015      0.00
   H2O             7.219e+01   1.000e+00     1.859    -0.000     0.000     18.07
Cl            1.000e-03
   Cl-             1.000e-03   9.648e-04    -3.000    -3.016    -0.016     18.06
H(0)          1.951e-15
   H2              9.753e-16   9.755e-16   -15.011   -15.011     0.000     28.61
Na            1.000e-03
   Na+             1.000e-03   9.651e-04    -3.000    -3.015    -0.015     -1.20
   NaOH            9.670e-21   9.672e-21   -20.015   -20.014     0.000     (0)  
O(0)          0.000e+00
   O2              0.000e+00   0.000e+00   -62.359   -62.358     0.000     30.40

------------------------------Saturation indices-------------------------------

	Phase               SI   log IAP   log K(298 K,   1 atm)

	H2(g)           -11.91    -15.01   -3.10  H2
	H2O(g)           -1.50     -0.00    1.50  H2O
	Halite           -7.61     -6.03    1.58  NaCl
	O2(g)           -59.47    -62.36   -2.89  O2


Using solution 3.	
Using surface 3.	

------------------------------Surface composition------------------------------

Su            
	 -2.153e-16  Surface + diffuse layer charge, eq
	 -1.000e-03  Surface charge, eq
	 -9.649e-03  sigma, C/m**2
	 -8.653e-02  psi, V
	  3.368e+00  -F*psi/RT
	  2.902e+01  exp(-F*psi/RT)
	  1.000e+04  specific area, m**2/g
	  1.000e+04  m**2 for   1.000e+00 g

	Water in diffuse layer: 9.020e-02 kg, 100.0% of total DDL-water.
	Radius of total pore:   7.804e-08 m; of free pore: 6.843e-08 m.

	Total moles in diffuse layer (excluding water), Donnan calculation 

	Element       	     Moles
	Cl            	  8.0710e-06
	H             	  1.0512e-07
	Na            	  1.0080e-03
	O             	  8.3836e-10

Su            
	  1.000e-03  moles
	                                   Mole                     Log
	Species               Moles    Fraction    Molality    Molality

	Su-               1.000e-03       1.000   3.333e-03      -2.477

-----------------------------Solution composition------------------------------

	Elements           Molality       Moles

	Cl                1.000e-03   3.000e-04
	Na                1.000e-03   3.000e-04

----------------------------Description of solution----------------------------

                                       pH  =   7.000      Charge balance
                                       pe  =  -1.061      Adjusted to redox equilibrium
       Specific Conductance (uS/cm, 25 oC) = 123
                          Density (g/cm3)  =   0.99708
                        Activity of water  =   1.000
                           Ionic strength  =   1.000e-03
                       Mass of water (kg)  =   3.000e-01
                 Total alkalinity (eq/kg)  =   4.189e-10
                    Total carbon (mol/kg)  =   0.000e+00
                       Total CO2 (mol/kg)  =   0.000e+00
                      Temperature (deg C)  =  25.00
                  Electrical balance (eq)  =   2.238e-10
 Percent error, 100*(Cat-|An|)/(Cat+|An|)  =   0.00
                               Iterations  =   3
                                  Total H  = 3.330373e+01
                                  Total O  = 1.665187e+01

----------------------------Distribution of species----------------------------

                                               Log       Log       Log    mole V
   Species          Molality    Activity  Molality  Activity     Gamma   cm3/mol

   OH-             1.039e-07   1.002e-07    -6.983    -6.999    -0.016     -4.08
   H+              1.035e-07   1.000e-07    -6.985    -7.000    -0.015      0.00
   H2O             7.219e+01   1.000e+00     1.859    -0.000     0.000     18.07
Cl            1.000e-03
   Cl-             1.000e-03   9.648e-04    -3.000    -3.016    -0.016     18.06
H(0)          1.876e-15
   H2              9.382e-16   9.384e-16   -15.028   -15.028     0.000     28.61
Na            1.000e-03
   Na+             1.000e-03   9.651e-04    -3.000    -3.015    -0.015     -1.20
   NaOH            9.670e-21   9.672e-21   -20.015   -20.014     0.000     (0)  
O(0)          0.000e+00
   O2              0.000e+00   0.000e+00   -62.325   -62.325     0.000     30.40

------------------------------Saturation indices-------------------------------

	Phase               SI   log IAP   log K(298 K,   1 atm)

	H2(g)           -11.93    -15.03   -3.10  H2
	H2O(g)           -1.50     -0.00    1.50  H2O
	Halite           -7.61     -6.03    1.58  NaCl
	O2(g)           -59.43    -62.32   -2.89  O2


Using solution 4.	
Using surface 4.	

------------------------------Surface composition------------------------------

Su            
	 -2.153e-16  Surface + diffuse layer charge, eq
	 -1.000e-03  Surface charge, eq
	 -9.649e-03  sigma, C/m**2
	 -8.653e-02  psi, V
	  3.368e+00  -F*psi/RT
	  2.902e+01  exp(-F*psi/RT)
	  1.000e+04  specific area, m**2/g
	  1.000e+04  m**2 for   1.000e+00 g

	Water in diffuse layer: 9.020e-02 kg, 100.0% of total DDL-water.
	Radius of total pore:   7.804e-08 m; of free pore: 6.843e-08 m.

	Total moles in diffuse layer (excluding water), Donnan calculation 

	Element       	     Moles
	Cl            	  8.0710e-06
	H             	  1.0512e-07
	Na            	  1.0080e-03
	O             	  8.3836e-10

Su            
	  1.000e-03  moles
	                                   Mole                     Log
	Species               Moles    Fraction    Molality    Molality

	Su-               1.000e-03       1.000   3.333e-03      -2.477

-----------------------------Solution composition------------------------------

	Elements           Molality       Moles

	Cl                1.000e-03   3.000e-04
	Na                1.000e-03   3.000e-04

----------------------------Description of solution----------------------------

                                       pH  =   7.000      Charge balance
                                       pe  =  -1.061      Adjusted to redox equilibrium
       Specific Conductance (uS/cm, 25 oC) = 123
                          Density (g/cm3)  =   0.99708
                        Activity of water  =   1.000
                           Ionic strength  =   1.000e-03
                       Mass of water (kg)  =   3.000e-01
                 Total alkalinity (eq/kg)  =   4.189e-10
                    Total carbon (mol/kg)  =   0.000e+00
                       Total CO2 (mol/kg)  =   0.000e+00
                      Temperature (deg C)  =  25.00
                  Electrical balance (eq)  =   2.238e-10
 Percent error, 100*(Cat-|An|)/(Cat+|An|)  =   0.00
                               Iterations  =   3
                                  Total H  = 3.330373e+01
                                  Total O  = 1.665187e+01

----------------------------Distribution of species----------------------------

                                               Log       Log       Log    mole V
   Species          Molality    Activity  Molality  Activity     Gamma   cm3/mol

   OH-             1.039e-07   1.002e-07    -6.983    -6.999    -0.016     -4.08
   H+              1.035e-07   1.000e-07    -6.985    -7.000    -0.015      0.00
   H2O             7.219e+01   1.000e+00     1.859    -0.000     0.000     18.07
Cl            1.000e-03
   Cl-             1.000e-03   9.648e-04    -3.000    -3.016    -0.016     18.06
H(0)          1.876e-15
   H2              9.382e-16   9.384e-16   -15.028   -15.028     0.000     28.61
Na            1.000e-03
   Na+             1.000e-03   9.651e-04    -3.000    -3.015    -0.015     -1.20
   NaOH            9.670e-21   9.672e-21   -20.015   -20.014     0.000     (0)  
O(0)          0.000e+00
   O2              0.000e+00   0.000e+00   -62.325   -62.325     0.000     30.40

------------------------------Saturation indices-------------------------------

	Phase               SI   log IAP   log K(298 K,   1 atm)

	H2(g)           -11.93    -15.03   -3.10  H2
	H2O(g)           -1.50     -0.00    1.50  H2O
	Halite           -7.61     -6.03    1.58  NaCl
	O2(g)           -59.43    -62.32   -2.89  O2


Using solution 5.	
Using surface 5.	

------------------------------Surface composition------------------------------

Su            
	 -2.153e-16  Surface + diffuse layer charge, eq
	 -1.000e-03  Surface charge, eq
	 -9.649e-03  sigma, C/m**2
	 -8.653e-02  psi, V
	  3.368e+00  -F*psi/RT
	  2.902e+01  exp(-F*psi/RT)
	  1.000e+04  specific area, m**2/g
	  1.000e+04  m**2 for   1.000e+00 g

	Water in diffuse layer: 9.020e-02 kg, 100.0% of total DDL-water.
	Radius of total pore:   7.804e-08 m; of free pore: 6.843e-08 m.

	Total moles in diffuse layer (excluding water), Donnan calculation 

	Element       	     Moles
	Cl            	  8.0710e-06
	H             	  1.0512e-07
	Na            	  1.0080e-03
	O             	  8.3836e-10

Su            
	  1.000e-03  moles
	                                   Mole                     Log
	Species               Moles    Fraction    Molality    Molality

	Su-               1.000e-03       1.000   3.333e-03      -2.477

-----------------------------Solution composition------------------------------

	Elements           Molality       Moles

	Cl                1.000e-03   3.000e-04
	Na                1.000e-03   3.000e-04

----------------------------Description of solution----------------------------

                                       pH  =   7.000      Charge balance
                                       pe  =  -1.061      Adjusted to redox equilibrium
       Specific Conductance (uS/cm, 25 oC) = 123
                          Density (g/cm3)  =   0.99708
                        Activity of water  =   1.000
                           Ionic strength  =   1.000e-03
                       Mass of water (kg)  =   3.000e-01
                 Total alkalinity (eq/kg)  =   4.189e-10
                    Total carbon (mol/kg)  =   0.000e+00
                       Total CO2 (mol/kg)  =   0.000e+00
                      Temperature (deg C)  =  25.00
                  Electrical balance (eq)  =   2.238e-10
 Percent error, 100*(Cat-|An|)/(Cat+|An|)  =   0.00
                               Iterations  =   3
                                  Total H  = 3.330373e+01
                                  Total O  = 1.665187e+01

----------------------------Distribution of species----------------------------

                                               Log       Log       Log    mole V
   Species          Molality    Activity  Molality  Activity     Gamma   cm3/mol

   OH-             1.039e-07   1.002e-07    -6.983    -6.999    -0.016     -4.08
   H+              1.035e-07   1.000e-07    -6.985    -7.000    -0.015      0.00
   H2O             7.219e+01   1.000e+00     1.859    -0.000     0.000     18.07
Cl            1.000e-03
   Cl-             1.000e-03   9.648e-04    -3.000    -3.016    -0.016     18.06
H(0)          1.876e-15
   H2              9.382e-16   9.384e-16   -15.028   -15.028     0.000     28.61
Na            1.000e-03
   Na+             1.000e-03   9.651e-04    -3.000    -3.015    -0.015     -1.20
   NaOH            9.670e-21   9.672e-21   -20.015   -20.014     0.000     (0)  
O(0)          0.000e+00
   O2              0.000e+00   0.000e+00   -62.325   -62.325     0.000     30.40

------------------------------Saturation indices-------------------------------

	Phase               SI   log IAP   log K(298 K,   1 atm)

	H2(g)           -11.93    -15.03   -3.10  H2
	H2O(g)           -1.50     -0.00    1.50  H2O
	Halite           -7.61     -6.03    1.58  NaCl
	O2(g)           -59.43    -62.32   -2.89  O2


Using solution 6.	
Using surface 6.	

------------------------------Surface composition------------------------------

Su            
	 -2.153e-16  Surface + diffuse layer charge, eq
	 -1.000e-03  Surface charge, eq
	 -9.649e-03  sigma, C/m**2
	 -8.653e-02  psi, V
	  3.368e+00  -F*psi/RT
	  2.902e+01  exp(-F*psi/RT)
	  1.000e+04  specific area, m**2/g
	  1.000e+04  m**2 for   1.000e+00 g

	Water in diffuse layer: 9.020e-02 kg, 100.0% of total DDL-water.
	Radius of total pore:   7.804e-08 m; of free pore: 6.843e-08 m.

	Total moles in diffuse layer (excluding water), Donnan calculation 

	Element       	     Moles
	Cl            	  8.0710e-06
	H             	  1.0512e-07
	Na            	  1.0080e-03
	O             	  8.3836e-10

Su            
	  1.000e-03  moles
	                                   Mole                     Log
	Species               Moles    Fraction    Molality    Molality

	Su-               1.000e-03       1.000   3.333e-03      -2.477

-----------------------------Solution composition------------------------------

	Elements           Molality       Moles

	Cl                1.000e-03   3.000e-04
	Na                1.000e-03   3.000e-04

----------------------------Description of solution----------------------------

                                       pH  =   7.000      Charge balance
                                       pe  =  -1.061      Adjusted to redox equilibrium
       Specific Conductance (uS/cm, 25 oC) = 123
                          Density (g/cm3)  =   0.99708
                        Activity of water  =   1.000
                           Ionic strength  =   1.000e-03
                       Mass of water (kg)  =   3.000e-01
                 Total alkalinity (eq/kg)  =   4.189e-10
                    Total carbon (mol/kg)  =   0.000e+00
                       Total CO2 (mol/kg)  =   0.000e+00
                      Temperature (deg C)  =  25.00
                  Electrical balance (eq)  =   2.238e-10
 Percent error, 100*(Cat-|An|)/(Cat+|An|)  =   0.00
                               Iterations  =   3
                                  Total H  = 3.330373e+01
                                  Total O  = 1.665187e+01

----------------------------Distribution of species----------------------------

                                               Log       Log       Log    mole V
   Species          Molality    Activity  Molality  Activity     Gamma   cm3/mol

   OH-             1.039e-07   1.002e-07    -6.983    -6.999    -0.016     -4.08
   H+              1.035e-07   1.000e-07    -6.985    -7.000    -0.015      0.00
   H2O             7.219e+01   1.000e+00     1.859    -0.000     0.000     18.07
Cl            1.000e-03
   Cl-             1.000e-03   9.648e-04    -3.000    -3.016    -0.016     18.06
H(0)          1.876e-15
   H2              9.382e-16   9.384e-16   -15.028   -15.028     0.000     28.61
Na            1.000e-03
   Na+             1.000e-03   9.651e-04    -3.000    -3.015    -0.015     -1.20
   NaOH            9.670e-21   9.672e-21   -20.015   -20.014     0.000     (0)  
O(0)          0.000e+00
   O2              0.000e+00   0.000e+00   -62.325   -62.325     0.000     30.40

------------------------------Saturation indices-------------------------------

	Phase               SI   log IAP   log K(298 K,   1 atm)

	H2(g)           -11.93    -15.03   -3.10  H2
	H2O(g)           -1.50     -0.00    1.50  H2O
	Halite           -7.61     -6.03    1.58  NaCl
	O2(g)           -59.43    -62.32   -2.89  O2


Using solution 7.	
Using surface 7.	

------------------------------Surface composition------------------------------

Su            
	 -2.153e-16  Surface + diffuse layer charge, eq
	 -1.000e-03  Surface charge, eq
	 -9.649e-03  sigma, C/m**2
	 -8.653e-02  psi, V
	  3.368e+00  -F*psi/RT
	  2.902e+01  exp(-F*psi/RT)
	  1.000e+04  specific area, m**2/g
	  1.000e+04  m**2 for   1.000e+00 g

	Water in diffuse layer: 9.020e-02 kg, 100.0% of total DDL-water.
	Radius of total pore:   7.804e-08 m; of free pore: 6.843e-08 m.

	Total moles in diffuse layer (excluding water), Donnan calculation 

	Element       	     Moles
	Cl            	  8.0710e-06
	H             	  1.0512e-07
	Na            	  1.0080e-03
	O             	  8.3836e-10

Su            
	  1.000e-03  moles
	                                   Mole                     Log
	Species               Moles    Fraction    Molality    Molality

	Su-               1.000e-03       1.000   3.333e-03      -2.477

-----------------------------Solution composition------------------------------

	Elements           Molality       Moles

	Cl                1.000e-03   3.000e-04
	Na                1.000e-03   3.000e-04

----------------------------Description of solution----------------------------

                                       pH  =   7.000      Charge balance
                                       pe  =  -1.061      Adjusted to redox equilibrium
       Specific Conductance (uS/cm, 25 oC) = 123
                          Density (g/cm3)  =   0.99708
                        Activity of water  =   1.000
                           Ionic strength  =   1.000e-03
                       Mass of water (kg)  =   3.000e-01
                 Total alkalinity (eq/kg)  =   4.189e-10
                    Total carbon (mol/kg)  =   0.000e+00
                       Total CO2 (mol/kg)  =   0.000e+00
                      Temperature (deg C)  =  25.00
                  Electrical balance (eq)  =   2.238e-10
 Percent error, 100*(Cat-|An|)/(Cat+|An|)  =   0.00
                               Iterations  =   3
                                  Total H  = 3.330373e+01
                                  Total O  = 1.665187e+01

----------------------------Distribution of species----------------------------

                                               Log       Log       Log    mole V
   Species          Molality    Activity  Molality  Activity     Gamma   cm3/mol

   OH-             1.039e-07   1.002e-07    -6.983    -6.999    -0.016     -4.08
   H+              1.035e-07   1.000e-07    -6.985    -7.000    -0.015      0.00
   H2O             7.219e+01   1.000e+00     1.859    -0.000     0.000     18.07
Cl            1.000e-03
   Cl-             1.000e-03   9.648e-04    -3.000    -3.016    -0.016     18.06
H(0)          1.876e-15
   H2              9.382e-16   9.384e-16   -15.028   -15.028     0.000     28.61
Na            1.000e-03
   Na+             1.000e-03   9.651e-04    -3.000    -3.015    -0.015     -1.20
   NaOH            9.670e-21   9.672e-21   -20.015   -20.014     0.000     (0)  
O(0)          0.000e+00
   O2              0.000e+00   0.000e+00   -62.325   -62.325     0.000     30.40

------------------------------Saturation indices-------------------------------

	Phase               SI   log IAP   log K(298 K,   1 atm)

	H2(g)           -11.93    -15.03   -3.10  H2
	H2O(g)           -1.50     -0.00    1.50  H2O
	Halite           -7.61     -6.03    1.58  NaCl
	O2(g)           -59.43    -62.32   -2.89  O2


Using solution 8.	
Using surface 8.	

------------------------------Surface composition------------------------------

Su            
	 -2.153e-16  Surface + diffuse layer charge, eq
	 -1.000e-03  Surface charge, eq
	 -9.649e-03  sigma, C/m**2
	 -8.653e-02  psi, V
	  3.368e+00  -F*psi/RT
	  2.902e+01  exp(-F*psi/RT)
	  1.000e+04  specific area, m**2/g
	  1.000e+04  m**2 for   1.000e+00 g

	Water in diffuse layer: 9.020e-02 kg, 100.0% of total DDL-water.
	Radius of total pore:   7.804e-08 m; of free pore: 6.843e-08 m.

	Total moles in diffuse layer (excluding water), Donnan calculation 

	Element       	     Moles
	Cl            	  8.0710e-06
	H             	  1.0512e-07
	Na            	  1.0080e-03
	O             	  8.3836e-10

Su            
	  1.000e-03  moles
	                                   Mole                     Log
	Species               Moles    Fraction    Molality    Molality

	Su-               1.000e-03       1.000   3.333e-03      -2.477

-----------------------------Solution composition------------------------------

	Elements           Molality       Moles

	Cl                1.000e-03   3.000e-04
	Na                1.000e-03   3.000e-04

----------------------------Description of solution----------------------------

                                       pH  =   7.000      Charge balance
                                       pe  =  -1.061      Adjusted to redox equilibrium
       Specific Conductance (uS/cm, 25 oC) = 123
                          Density (g/cm3)  =   0.99708
                        Activity of water  =   1.000
                           Ionic strength  =   1.000e-03
                       Mass of water (kg)  =   3.000e-01
                 Total alkalinity (eq/kg)  =   4.189e-10
                    Total carbon (mol/kg)  =   0.000e+00
                       Total CO2 (mol/kg)  =   0.000e+00
                      Temperature (deg C)  =  25.00
                  Electrical balance (eq)  =   2.238e-10
 Percent error, 100*(Cat-|An|)/(Cat+|An|)  =   0.00
                               Iterations  =   3
                                  Total H  = 3.330373e+01
                                  Total O  = 1.665187e+01

----------------------------Distribution of species----------------------------

                                               Log       Log       Log    mole V
   Species          Molality    Activity  Molality  Activity     Gamma   cm3/mol

   OH-             1.039e-07   1.002e-07    -6.983    -6.999    -0.016     -4.08
   H+              1.035e-07   1.000e-07    -6.985    -7.000    -0.015      0.00
   H2O             7.219e+01   1.000e+00     1.859    -0.000     0.000     18.07
Cl            1.000e-03
   Cl-             1.000e-03   9.648e-04    -3.000    -3.016    -0.016     18.06
H(0)          1.876e-15
   H2              9.382e-16   9.384e-16   -15.028   -15.028     0.000     28.61
Na            1.000e-03
   Na+             1.000e-03   9.651e-04    -3.000    -3.015    -0.015     -1.20
   NaOH            9.670e-21   9.672e-21   -20.015   -20.014     0.000     (0)  
O(0)          0.000e+00
   O2              0.000e+00   0.000e+00   -62.325   -62.325     0.000     30.40

------------------------------Saturation indices-------------------------------

	Phase               SI   log IAP   log K(298 K,   1 atm)

	H2(g)           -11.93    -15.03   -3.10  H2
	H2O(g)           -1.50     -0.00    1.50  H2O
	Halite           -7.61     -6.03    1.58  NaCl
	O2(g)           -59.43    -62.32   -2.89  O2


Using solution 9.	
Using surface 9.	

------------------------------Surface composition------------------------------

Su            
	 -2.153e-16  Surface + diffuse layer charge, eq
	 -1.000e-03  Surface charge, eq
	 -9.649e-03  sigma, C/m**2
	 -8.653e-02  psi, V
	  3.368e+00  -F*psi/RT
	  2.902e+01  exp(-F*psi/RT)
	  1.000e+04  specific area, m**2/g
	  1.000e+04  m**2 for   1.000e+00 g

	Water in diffuse layer: 9.020e-02 kg, 100.0% of total DDL-water.
	Radius of total pore:   7.804e-08 m; of free pore: 6.843e-08 m.

	Total moles in diffuse layer (excluding water), Donnan calculation 

	Element       	     Moles
	Cl            	  8.0710e-06
	H             	  1.0512e-07
	Na            	  1.0080e-03
	O             	  8.3836e-10

Su            
	  1.000e-03  moles
	                                   Mole                     Log
	Species               Moles    Fraction    Molality    Molality

	Su-               1.000e-03       1.000   3.333e-03      -2.477

-----------------------------Solution composition------------------------------

	Elements           Molality       Moles

	Cl                1.000e-03   3.000e-04
	Na                1.000e-03   3.000e-04

----------------------------Description of solution----------------------------

                                       pH  =   7.000      Charge balance
                                       pe  =  -1.061      Adjusted to redox equilibrium
       Specific Conductance (uS/cm, 25 oC) = 123
                          Density (g/cm3)  =   0.99708
                        Activity of water  =   1.000
                           Ionic strength  =   1.000e-03
                       Mass of water (kg)  =   3.000e-01
                 Total alkalinity (eq/kg)  =   4.189e-10
                    Total carbon (mol/kg)  =   0.000e+00
                       Total CO2 (mol/kg)  =   0.000e+00
                      Temperature (deg C)  =  25.00
                  Electrical balance (eq)  =   2.238e-10
 Percent error, 100*(Cat-|An|)/(Cat+|An|)  =   0.00
                               Iterations  =   3
                                  Total H  = 3.330373e+01
                                  Total O  = 1.665187e+01

----------------------------Distribution of species----------------------------

                                               Log       Log       Log    mole V
   Species          Molality    Activity  Molality  Activity     Gamma   cm3/mol

   OH-             1.039e-07   1.002e-07    -6.983    -6.999    -0.016     -4.08
   H+              1.035e-07   1.000e-07    -6.985    -7.000    -0.015      0.00
   H2O             7.219e+01   1.000e+00     1.859    -0.000     0.000     18.07
Cl            1.000e-03
   Cl-             1.000e-03   9.648e-04    -3.000    -3.016    -0.016     18.06
H(0)          1.876e-15
   H2              9.382e-16   9.384e-16   -15.028   -15.028     0.000     28.61
Na            1.000e-03
   Na+             1.000e-03   9.651e-04    -3.000    -3.015    -0.015     -1.20
   NaOH            9.670e-21   9.672e-21   -20.015   -20.014     0.000     (0)  
O(0)          0.000e+00
   O2              0.000e+00   0.000e+00   -62.325   -62.325     0.000     30.40

------------------------------Saturation indices-------------------------------

	Phase               SI   log IAP   log K(298 K,   1 atm)

	H2(g)           -11.93    -15.03   -3.10  H2
	H2O(g)           -1.50     -0.00    1.50  H2O
	Halite           -7.61     -6.03    1.58  NaCl
	O2(g)           -59.43    -62.32   -2.89  O2


Using solution 10.	
Using surface 10.	

------------------------------Surface composition------------------------------

Su            
	 -2.153e-16  Surface + diffuse layer charge, eq
	 -1.000e-03  Surface charge, eq
	 -9.649e-03  sigma, C/m**2
	 -8.653e-02  psi, V
	  3.368e+00  -F*psi/RT
	  2.902e+01  exp(-F*psi/RT)
	  1.000e+04  specific area, m**2/g
	  1.000e+04  m**2 for   1.000e+00 g

	Water in diffuse layer: 9.020e-02 kg, 100.0% of total DDL-water.
	Radius of total pore:   7.804e-08 m; of free pore: 6.843e-08 m.

	Total moles in diffuse layer (excluding water), Donnan calculation 

	Element       	     Moles
	Cl            	  8.0710e-06
	H             	  1.0512e-07
	Na            	  1.0080e-03
	O             	  8.3836e-10

Su            
	  1.000e-03  moles
	                                   Mole                     Log
	Species               Moles    Fraction    Molality    Molality

	Su-               1.000e-03       1.000   3.333e-03      -2.477

-----------------------------Solution composition------------------------------

	Elements           Molality       Moles

	Cl                1.000e-03   3.000e-04
	Na                1.000e-03   3.000e-04

----------------------------Description of solution----------------------------

                                       pH  =   7.000      Charge balance
                                       pe  =  -1.061      Adjusted to redox equilibrium
       Specific Conductance (uS/cm, 25 oC) = 123
                          Density (g/cm3)  =   0.99708
                        Activity of water  =   1.000
                           Ionic strength  =   1.000e-03
                       Mass of water (kg)  =   3.000e-01
                 Total alkalinity (eq/kg)  =   4.189e-10
                    Total carbon (mol/kg)  =   0.000e+00
                       Total CO2 (mol/kg)  =   0.000e+00
                      Temperature (deg C)  =  25.00
                  Electrical balance (eq)  =   2.238e-10
 Percent error, 100*(Cat-|An|)/(Cat+|An|)  =   0.00
                               Iterations  =   3
                                  Total H  = 3.330373e+01
                                  Total O  = 1.665187e+01

----------------------------Distribution of species----------------------------

                                               Log       Log       Log    mole V
   Species          Molality    Activity  Molality  Activity     Gamma   cm3/mol

   OH-             1.039e-07   1.002e-07    -6.983    -6.999    -0.016     -4.08
   H+              1.035e-07   1.000e-07    -6.985    -7.000    -0.015      0.00
   H2O             7.219e+01   1.000e+00     1.859    -0.000     0.000     18.07
Cl            1.000e-03
   Cl-             1.000e-03   9.648e-04    -3.000    -3.016    -0.016     18.06
H(0)          1.876e-15
   H2              9.382e-16   9.384e-16   -15.028   -15.028     0.000     28.61
Na            1.000e-03
   Na+             1.000e-03   9.651e-04    -3.000    -3.015    -0.015     -1.20
   NaOH            9.670e-21   9.672e-21   -20.015   -20.014     0.000     (0)  
O(0)          0.000e+00
   O2              0.000e+00   0.000e+00   -62.325   -62.325     0.000     30.40

------------------------------Saturation indices-------------------------------

	Phase               SI   log IAP   log K(298 K,   1 atm)

	H2(g)           -11.93    -15.03   -3.10  H2
	H2O(g)           -1.50     -0.00    1.50  H2O
	Halite           -7.61     -6.03    1.58  NaCl
	O2(g)           -59.43    -62.32   -2.89  O2


Transport step   1. Multicomponent diffusion run   1.

Transport step   1. Multicomponent diffusion run   2.

Transport step   1. Multicomponent diffusion run   3.

Transport step   1. Multicomponent diffusion run   4.

Transport step   1. Multicomponent diffusion run   5.

Transport step   1. Multicomponent diffusion run   6.

Transport step   1. Multicomponent diffusion run   7.

Transport step   1. Multicomponent diffusion run   8.

Transport step   1. Multicomponent diffusion run   9.

Transport step   1. Multicomponent diffusion run  10.

Transport step   1. Multicomponent diffusion run  11.

Transport step   1. Multicomponent diffusion run  12.

Transport step   1. Multicomponent diffusion run  13.

Transport step   1. Multicomponent diffusion run  14.

Transport step   1. Multicomponent diffusion run  15.

Transport step   1. Multicomponent diffusion run  16.

Transport step   1. Multicomponent diffusion run  17.

Transport step   1. Multicomponent diffusion run  18.

Transport step   1. Multicomponent diffusion run  19.

Transport step   1. Multicomponent diffusion run  20.

Transport step   1. Multicomponent diffusion run  21.

Transport step   1. Multicomponent diffusion run  22.

Transport step   1. Multicomponent diffusion run  23.

Transport step   1. Multicomponent diffusion run  24.

Transport step   1. Multicomponent diffusion run  25.

Transport step   1. Multicomponent diffusion run  26.

Transport step   1. Multicomponent diffusion run  27.

Transport step   1. Multicomponent diffusion run  28.

Transport step   1. Multicomponent diffusion run  29.

Transport step   1. Multicomponent diffusion run  30.

Transport step   1. Multicomponent diffusion run  31.

Transport step   1. Multicomponent diffusion run  32.

Transport step   1. Multicomponent diffusion run  33.

Transport step   1. Multicomponent diffusion run  34.

Transport step   1. Multicomponent diffusion run  35.

Transport step   1. Multicomponent diffusion run  36.

Transport step   1. Multicomponent diffusion run  37.

Transport step   1. Multicomponent diffusion run  38.

Transport step   1. Multicomponent diffusion run  39.

Transport step   1. Multicomponent diffusion run  40.

Transport step   1. Multicomponent diffusion run  41.

Transport step   1. Multicomponent diffusion run  42.

Using mix 1.	
Using surface 1.	

Mixture 1.	

	  0.000e+00 Solution 0	Solution after simulation 2.                           
	  1.000e+00 Solution 1	Solution after simulation 2.                           
	  0.000e+00 Solution 2	Solution after simulation 2.                           

------------------------------Surface composition------------------------------

Su            
	 -6.765e-17  Surface + diffuse layer charge, eq
	 -1.000e-03  Surface charge, eq
	 -9.649e-03  sigma, C/m**2
	 -1.191e-01  psi, V
	  4.635e+00  -F*psi/RT
	  1.031e+02  exp(-F*psi/RT)
	  1.000e+04  specific area, m**2/g
	  1.000e+04  m**2 for   1.000e+00 g

	Water in diffuse layer: 1.637e-01 kg, 100.0% of total DDL-water.
	Radius of total pore:   7.804e-08 m; of free pore: 5.946e-08 m.

	Total moles in diffuse layer (excluding water), Donnan calculation 

	Element       	     Moles
	Cl            	  1.9157e-06
	H             	  6.9983e-06
	Na            	  9.9492e-04
	O             	  9.3375e-07

Su            
	  1.000e-03  moles
	                                   Mole                     Log
	Species               Moles    Fraction    Molality    Molality

	Su-               1.000e-03       1.000   4.414e-03      -2.355

-----------------------------Solution composition------------------------------

	Elements           Molality       Moles

	Cl                2.677e-04   6.064e-05
	Na                2.658e-04   6.022e-05

----------------------------Description of solution----------------------------

                                       pH  =   5.736      Charge balance
                                       pe  =  14.398      Adjusted to redox equilibrium
       Specific Conductance (uS/cm, 25 oC) = 33
                          Density (g/cm3)  =   0.99705
                        Activity of water  =   1.000
                           Ionic strength  =   2.677e-04
                       Mass of water (kg)  =   2.265e-01
                 Total alkalinity (eq/kg)  =  -1.864e-06
                    Total carbon (mol/kg)  =   0.000e+00
                       Total CO2 (mol/kg)  =   0.000e+00
                      Temperature (deg C)  =  25.00
                  Electrical balance (eq)  =   3.601e-10
 Percent error, 100*(Cat-|An|)/(Cat+|An|)  =   0.00
                               Iterations  =   3
                                  Total H  = 2.514753e+01
                                  Total O  = 1.257377e+01

----------------------------Distribution of species----------------------------

                                               Log       Log       Log    mole V
   Species          Molality    Activity  Molality  Activity     Gamma   cm3/mol

   H+              1.870e-06   1.836e-06    -5.728    -5.736    -0.008      0.00
   OH-             5.563e-09   5.459e-09    -8.255    -8.263    -0.008     -4.09
   H2O             9.561e+01   1.000e+00     1.981    -0.000     0.000     18.07
Cl            2.677e-04
   Cl-             2.677e-04   2.627e-04    -3.572    -3.581    -0.008     18.05
H(0)          0.000e+00
   H2              0.000e+00   0.000e+00   -43.418   -43.418     0.000     28.61
Na            2.658e-04
   Na+             2.658e-04   2.609e-04    -3.575    -3.584    -0.008     -1.21
   NaOH            1.424e-22   1.424e-22   -21.846   -21.846     0.000     (0)  
O(0)          5.705e-06
   O2              2.852e-06   2.853e-06    -5.545    -5.545     0.000     30.40

------------------------------Saturation indices-------------------------------

	Phase               SI   log IAP   log K(298 K,   1 atm)

	H2(g)           -40.32    -43.42   -3.10  H2
	H2O(g)           -1.50     -0.00    1.50  H2O
	Halite           -8.75     -7.16    1.58  NaCl
	O2(g)            -2.65     -5.54   -2.89  O2


Using mix 2.	
Using surface 2.	

Mixture 2.	

	  0.000e+00 Solution 1	Solution after simulation 2.                           
	  1.000e+00 Solution 2	Solution after simulation 2.                           
	  0.000e+00 Solution 3	Solution after simulation 2.                           

------------------------------Surface composition------------------------------

Su            
	 -7.084e-12  Surface + diffuse layer charge, eq
	 -1.000e-03  Surface charge, eq
	 -9.649e-03  sigma, C/m**2
	 -9.628e-02  psi, V
	  3.747e+00  -F*psi/RT
	  4.241e+01  exp(-F*psi/RT)
	  1.000e+04  specific area, m**2/g
	  1.000e+04  m**2 for   1.000e+00 g

	Water in diffuse layer: 1.087e-01 kg, 100.0% of total DDL-water.
	Radius of total pore:   7.804e-08 m; of free pore: 6.629e-08 m.

	Total moles in diffuse layer (excluding water), Donnan calculation 

	Element       	     Moles
	Cl            	  5.2587e-06
	H             	  3.5737e-06
	Na            	  1.0017e-03
	O             	  8.3770e-07

Su            
	  1.000e-03  moles
	                                   Mole                     Log
	Species               Moles    Fraction    Molality    Molality

	Su-               1.000e-03       1.000   3.552e-03      -2.450

-----------------------------Solution composition------------------------------

	Elements           Molality       Moles

	Cl                6.691e-04   1.884e-04
	Na                6.668e-04   1.877e-04

----------------------------Description of solution----------------------------

                                       pH  =   5.636      Charge balance
                                       pe  =  14.531      Adjusted to redox equilibrium
       Specific Conductance (uS/cm, 25 oC) = 83
                          Density (g/cm3)  =   0.99707
                        Activity of water  =   1.000
                           Ionic strength  =   6.691e-04
                       Mass of water (kg)  =   2.815e-01
                 Total alkalinity (eq/kg)  =  -2.374e-06
                    Total carbon (mol/kg)  =   0.000e+00
                       Total CO2 (mol/kg)  =   0.000e+00
                      Temperature (deg C)  =  25.00
                  Electrical balance (eq)  =  -6.734e-13
 Percent error, 100*(Cat-|An|)/(Cat+|An|)  =  -0.00
                               Iterations  =   2
                                  Total H  = 3.125425e+01
                                  Total O  = 1.562713e+01

----------------------------Distribution of species----------------------------

                                               Log       Log       Log    mole V
   Species          Molality    Activity  Molality  Activity     Gamma   cm3/mol

   H+              2.379e-06   2.313e-06    -5.624    -5.636    -0.012      0.00
   OH-             4.463e-09   4.334e-09    -8.350    -8.363    -0.013     -4.08
   H2O             7.693e+01   1.000e+00     1.886    -0.000     0.000     18.07
Cl            6.691e-04
   Cl-             6.691e-04   6.497e-04    -3.174    -3.187    -0.013     18.06
H(0)          0.000e+00
   H2              0.000e+00   0.000e+00   -43.483   -43.483     0.000     28.61
Na            6.668e-04
   Na+             6.668e-04   6.475e-04    -3.176    -3.189    -0.013     -1.20
   NaOH            2.806e-22   2.806e-22   -21.552   -21.552     0.000     (0)  
O(0)          7.709e-06
   O2              3.855e-06   3.855e-06    -5.414    -5.414     0.000     30.40

------------------------------Saturation indices-------------------------------

	Phase               SI   log IAP   log K(298 K,   1 atm)

	H2(g)           -40.38    -43.48   -3.10  H2
	H2O(g)           -1.50     -0.00    1.50  H2O
	Halite           -7.96     -6.38    1.58  NaCl
	O2(g)            -2.52     -5.41   -2.89  O2


Using mix 3.	
Using surface 3.	

Mixture 3.	

	  0.000e+00 Solution 2	Solution after simulation 2.                           
	  1.000e+00 Solution 3	Solution after simulation 2.                           
	  0.000e+00 Solution 4	Solution after simulation 2.                           

------------------------------Surface composition------------------------------

Su            
	 -1.124e-11  Surface + diffuse layer charge, eq
	 -1.000e-03  Surface charge, eq
	 -9.649e-03  sigma, C/m**2
	 -8.968e-02  psi, V
	  3.491e+00  -F*psi/RT
	  3.281e+01  exp(-F*psi/RT)
	  1.000e+04  specific area, m**2/g
	  1.000e+04  m**2 for   1.000e+00 g

	Water in diffuse layer: 9.588e-02 kg, 100.0% of total DDL-water.
	Radius of total pore:   7.804e-08 m; of free pore: 6.778e-08 m.

	Total moles in diffuse layer (excluding water), Donnan calculation 

	Element       	     Moles
	Cl            	  7.0249e-06
	H             	  1.8821e-06
	Na            	  1.0051e-03
	O             	  2.2925e-07

Su            
	  1.000e-03  moles
	                                   Mole                     Log
	Species               Moles    Fraction    Molality    Molality

	Su-               1.000e-03       1.000   3.398e-03      -2.469

-----------------------------Solution composition------------------------------

	Elements           Molality       Moles

	Cl                8.773e-04   2.582e-04
	Na                8.756e-04   2.577e-04

----------------------------Description of solution----------------------------

                                       pH  =   5.799      Charge balance
                                       pe  =  14.240      Adjusted to redox equilibrium
       Specific Conductance (uS/cm, 25 oC) = 108
                          Density (g/cm3)  =   0.99708
                        Activity of water  =   1.000
                           Ionic strength  =   8.773e-04
                       Mass of water (kg)  =   2.943e-01
                 Total alkalinity (eq/kg)  =  -1.633e-06
                    Total carbon (mol/kg)  =   0.000e+00
                       Total CO2 (mol/kg)  =   0.000e+00
                      Temperature (deg C)  =  25.00
                  Electrical balance (eq)  =  -6.141e-11
 Percent error, 100*(Cat-|An|)/(Cat+|An|)  =  -0.00
                               Iterations  =   2
                                  Total H  = 3.267324e+01
                                  Total O  = 1.633662e+01

----------------------------Distribution of species----------------------------

                                               Log       Log       Log    mole V
   Species          Molality    Activity  Molality  Activity     Gamma   cm3/mol

   H+              1.640e-06   1.588e-06    -5.785    -5.799    -0.014      0.00
   OH-             6.527e-09   6.311e-09    -8.185    -8.200    -0.015     -4.08
   H2O             7.359e+01   1.000e+00     1.867    -0.000     0.000     18.07
Cl            8.773e-04
   Cl-             8.773e-04   8.483e-04    -3.057    -3.071    -0.015     18.06
H(0)          0.000e+00
   H2              0.000e+00   0.000e+00   -43.229   -43.229     0.000     28.61
Na            8.756e-04
   Na+             8.756e-04   8.469e-04    -3.058    -3.072    -0.014     -1.20
   NaOH            5.344e-22   5.345e-22   -21.272   -21.272     0.000     (0)  
O(0)          2.391e-06
   O2              1.195e-06   1.196e-06    -5.923    -5.922     0.000     30.40

------------------------------Saturation indices-------------------------------

	Phase               SI   log IAP   log K(298 K,   1 atm)

	H2(g)           -40.13    -43.23   -3.10  H2
	H2O(g)           -1.50     -0.00    1.50  H2O
	Halite           -7.73     -6.14    1.58  NaCl
	O2(g)            -3.03     -5.92   -2.89  O2


Using mix 4.	
Using surface 4.	

Mixture 4.	

	  0.000e+00 Solution 3	Solution after simulation 2.                           
	  1.000e+00 Solution 4	Solution after simulation 2.                           
	  0.000e+00 Solution 5	Solution after simulation 2.                           

------------------------------Surface composition------------------------------

Su            
	  7.416e-17  Surface + diffuse layer charge, eq
	 -1.000e-03  Surface charge, eq
	 -9.649e-03  sigma, C/m**2
	 -8.743e-02  psi, V
	  3.403e+00  -F*psi/RT
	  3.006e+01  exp(-F*psi/RT)
	  1.000e+04  specific area, m**2/g
	  1.000e+04  m**2 for   1.000e+00 g

	Water in diffuse layer: 9.180e-02 kg, 100.0% of total DDL-water.
	Radius of total pore:   7.804e-08 m; of free pore: 6.824e-08 m.

	Total moles in diffuse layer (excluding water), Donnan calculation 

	Element       	     Moles
	Cl            	  7.7563e-06
	H             	  1.0311e-06
	Na            	  1.0067e-03
	O             	  6.3088e-08

Su            
	  1.000e-03  moles
	                                   Mole                     Log
	Species               Moles    Fraction    Molality    Molality

	Su-               1.000e-03       1.000   3.351e-03      -2.475

-----------------------------Solution composition------------------------------

	Elements           Molality       Moles

	Cl                9.631e-04   2.874e-04
	Na                9.621e-04   2.871e-04

----------------------------Description of solution----------------------------

                                       pH  =   6.021      Charge balance
                                       pe  =  13.883      Adjusted to redox equilibrium
       Specific Conductance (uS/cm, 25 oC) = 119
                          Density (g/cm3)  =   0.99708
                        Activity of water  =   1.000
                           Ionic strength  =   9.631e-04
                       Mass of water (kg)  =   2.984e-01
                 Total alkalinity (eq/kg)  =  -9.744e-07
                    Total carbon (mol/kg)  =   0.000e+00
                       Total CO2 (mol/kg)  =   0.000e+00
                      Temperature (deg C)  =  25.00
                  Electrical balance (eq)  =   1.973e-11
 Percent error, 100*(Cat-|An|)/(Cat+|An|)  =   0.00
                               Iterations  =   3
                                  Total H  = 3.312603e+01
                                  Total O  = 1.656301e+01

----------------------------Distribution of species----------------------------

                                               Log       Log       Log    mole V
   Species          Molality    Activity  Molality  Activity     Gamma   cm3/mol

   H+              9.853e-07   9.530e-07    -6.006    -6.021    -0.014      0.00
   OH-             1.089e-08   1.052e-08    -7.963    -7.978    -0.015     -4.08
   H2O             7.258e+01   1.000e+00     1.861    -0.000     0.000     18.07
Cl            9.631e-04
   Cl-             9.631e-04   9.298e-04    -3.016    -3.032    -0.015     18.06
H(0)          0.000e+00
   H2              0.000e+00   0.000e+00   -42.958   -42.958     0.000     28.61
Na            9.621e-04
   Na+             9.621e-04   9.292e-04    -3.017    -3.032    -0.015     -1.20
   NaOH            9.769e-22   9.771e-22   -21.010   -21.010     0.000     (0)  
O(0)          6.863e-07
   O2              3.432e-07   3.432e-07    -6.465    -6.464     0.000     30.40

------------------------------Saturation indices-------------------------------

	Phase               SI   log IAP   log K(298 K,   1 atm)

	H2(g)           -39.86    -42.96   -3.10  H2
	H2O(g)           -1.50     -0.00    1.50  H2O
	Halite           -7.65     -6.06    1.58  NaCl
	O2(g)            -3.57     -6.46   -2.89  O2


Using mix 5.	
Using surface 5.	

Mixture 5.	

	  0.000e+00 Solution 4	Solution after simulation 2.                           
	  1.000e+00 Solution 5	Solution after simulation 2.                           
	  0.000e+00 Solution 6	Solution after simulation 2.                           

------------------------------Surface composition------------------------------

Su            
	 -6.633e-16  Surface + diffuse layer charge, eq
	 -1.000e-03  Surface charge, eq
	 -9.649e-03  sigma, C/m**2
	 -8.675e-02  psi, V
	  3.377e+00  -F*psi/RT
	  2.927e+01  exp(-F*psi/RT)
	  1.000e+04  specific area, m**2/g
	  1.000e+04  m**2 for   1.000e+00 g

	Water in diffuse layer: 9.058e-02 kg, 100.0% of total DDL-water.
	Radius of total pore:   7.804e-08 m; of free pore: 6.838e-08 m.

	Total moles in diffuse layer (excluding water), Donnan calculation 

	Element       	     Moles
	Cl            	  7.9937e-06
	H             	  5.8413e-07
	Na            	  1.0074e-03
	O             	  1.6399e-08

Su            
	  1.000e-03  moles
	                                   Mole                     Log
	Species               Moles    Fraction    Molality    Molality

	Su-               1.000e-03       1.000   3.338e-03      -2.477

-----------------------------Solution composition------------------------------

	Elements           Molality       Moles

	Cl                9.909e-04   2.969e-04
	Na                9.904e-04   2.967e-04

----------------------------Description of solution----------------------------

                                       pH  =   6.256      Charge balance
                                       pe  =  13.503      Adjusted to redox equilibrium
       Specific Conductance (uS/cm, 25 oC) = 122
                          Density (g/cm3)  =   0.99708
                        Activity of water  =   1.000
                           Ionic strength  =   9.910e-04
                       Mass of water (kg)  =   2.996e-01
                 Total alkalinity (eq/kg)  =  -5.554e-07
                    Total carbon (mol/kg)  =   0.000e+00
                       Total CO2 (mol/kg)  =   0.000e+00
                      Temperature (deg C)  =  25.00
                  Electrical balance (eq)  =   2.330e-10
 Percent error, 100*(Cat-|An|)/(Cat+|An|)  =   0.00
                               Iterations  =   3
                                  Total H  = 3.326071e+01
                                  Total O  = 1.663036e+01

----------------------------Distribution of species----------------------------

                                               Log       Log       Log    mole V
   Species          Molality    Activity  Molality  Activity     Gamma   cm3/mol

   H+              5.741e-07   5.550e-07    -6.241    -6.256    -0.015      0.00
   OH-             1.871e-08   1.806e-08    -7.728    -7.743    -0.015     -4.08
   H2O             7.229e+01   1.000e+00     1.859    -0.000     0.000     18.07
Cl            9.909e-04
   Cl-             9.909e-04   9.562e-04    -3.004    -3.019    -0.015     18.06
H(0)          0.000e+00
   H2              0.000e+00   0.000e+00   -42.667   -42.666     0.000     28.61
Na            9.904e-04
   Na+             9.904e-04   9.560e-04    -3.004    -3.020    -0.015     -1.20
   NaOH            1.726e-21   1.726e-21   -20.763   -20.763     0.000     (0)  
O(0)          1.794e-07
   O2              8.969e-08   8.971e-08    -7.047    -7.047     0.000     30.40

------------------------------Saturation indices-------------------------------

	Phase               SI   log IAP   log K(298 K,   1 atm)

	H2(g)           -39.57    -42.67   -3.10  H2
	H2O(g)           -1.50     -0.00    1.50  H2O
	Halite           -7.62     -6.04    1.58  NaCl
	O2(g)            -4.15     -7.05   -2.89  O2


Using mix 6.	
Using surface 6.	

Mixture 6.	

	  0.000e+00 Solution 5	Solution after simulation 2.                           
	  1.000e+00 Solution 6	Solution after simulation 2.                           
	  0.000e+00 Solution 7	Solution after simulation 2.                           

------------------------------Surface composition------------------------------

Su            
	 -1.689e-16  Surface + diffuse layer charge, eq
	 -1.000e-03  Surface charge, eq
	 -9.649e-03  sigma, C/m**2
	 -8.657e-02  psi, V
	  3.370e+00  -F*psi/RT
	  2.907e+01  exp(-F*psi/RT)
	  1.000e+04  specific area, m**2/g
	  1.000e+04  m**2 for   1.000e+00 g

	Water in diffuse layer: 9.027e-02 kg, 100.0% of total DDL-water.
	Radius of total pore:   7.804e-08 m; of free pore: 6.842e-08 m.

	Total moles in diffuse layer (excluding water), Donnan calculation 

	Element       	     Moles
	Cl            	  8.0556e-06
	H             	  3.4681e-07
	Na            	  1.0077e-03
	O             	  4.0679e-09

Su            
	  1.000e-03  moles
	                                   Mole                     Log
	Species               Moles    Fraction    Molality    Molality

	Su-               1.000e-03       1.000   3.334e-03      -2.477

-----------------------------Solution composition------------------------------

	Elements           Molality       Moles

	Cl                9.982e-04   2.994e-04
	Na                9.979e-04   2.993e-04

----------------------------Description of solution----------------------------

                                       pH  =   6.479      Charge balance
                                       pe  =  13.122      Adjusted to redox equilibrium
       Specific Conductance (uS/cm, 25 oC) = 123
                          Density (g/cm3)  =   0.99708
                        Activity of water  =   1.000
                           Ionic strength  =   9.982e-04
                       Mass of water (kg)  =   2.999e-01
                 Total alkalinity (eq/kg)  =  -3.119e-07
                    Total carbon (mol/kg)  =   0.000e+00
                       Total CO2 (mol/kg)  =   0.000e+00
                      Temperature (deg C)  =  25.00
                  Electrical balance (eq)  =   2.520e-10
 Percent error, 100*(Cat-|An|)/(Cat+|An|)  =   0.00
                               Iterations  =   3
                                  Total H  = 3.329497e+01
                                  Total O  = 1.664748e+01

----------------------------Distribution of species----------------------------

                                               Log       Log       Log    mole V
   Species          Molality    Activity  Molality  Activity     Gamma   cm3/mol

   H+              3.432e-07   3.317e-07    -6.464    -6.479    -0.015      0.00
   OH-             3.131e-08   3.021e-08    -7.504    -7.520    -0.016     -4.08
   H2O             7.221e+01   1.000e+00     1.859    -0.000     0.000     18.07
Cl            9.982e-04
   Cl-             9.982e-04   9.631e-04    -3.001    -3.016    -0.016     18.06
H(0)          0.000e+00
   H2              0.000e+00   0.000e+00   -42.353   -42.353     0.000     28.61
Na            9.979e-04
   Na+             9.979e-04   9.631e-04    -3.001    -3.016    -0.015     -1.20
   NaOH            2.909e-21   2.910e-21   -20.536   -20.536     0.000     (0)  
O(0)          4.226e-08
   O2              2.113e-08   2.114e-08    -7.675    -7.675     0.000     30.40

------------------------------Saturation indices-------------------------------

	Phase               SI   log IAP   log K(298 K,   1 atm)

	H2(g)           -39.25    -42.35   -3.10  H2
	H2O(g)           -1.50     -0.00    1.50  H2O
	Halite           -7.61     -6.03    1.58  NaCl
	O2(g)            -4.78     -7.67   -2.89  O2


Using mix 7.	
Using surface 7.	

Mixture 7.	

	  0.000e+00 Solution 6	Solution after simulation 2.                           
	  1.000e+00 Solution 7	Solution after simulation 2.                           
	  0.000e+00 Solution 8	Solution after simulation 2.                           

------------------------------Surface composition------------------------------

Su            
	  3.266e-16  Surface + diffuse layer charge, eq
	 -1.000e-03  Surface charge, eq
	 -9.649e-03  sigma, C/m**2
	 -8.654e-02  psi, V
	  3.368e+00  -F*psi/RT
	  2.903e+01  exp(-F*psi/RT)
	  1.000e+04  specific area, m**2/g
	  1.000e+04  m**2 for   1.000e+00 g

	Water in diffuse layer: 9.021e-02 kg, 100.0% of total DDL-water.
	Radius of total pore:   7.804e-08 m; of free pore: 6.843e-08 m.

	Total moles in diffuse layer (excluding water), Donnan calculation 

	Element       	     Moles
	Cl            	  8.0687e-06
	H             	  2.2302e-07
	Na            	  1.0078e-03
	O             	  1.1964e-09

Su            
	  1.000e-03  moles
	                                   Mole                     Log
	Species               Moles    Fraction    Molality    Molality

	Su-               1.000e-03       1.000   3.333e-03      -2.477

-----------------------------Solution composition------------------------------

	Elements           Molality       Moles

	Cl                9.997e-04   2.999e-04
	Na                9.996e-04   2.999e-04

----------------------------Description of solution----------------------------

                                       pH  =   6.671      Charge balance
                                       pe  =  12.761      Adjusted to redox equilibrium
       Specific Conductance (uS/cm, 25 oC) = 123
                          Density (g/cm3)  =   0.99708
                        Activity of water  =   1.000
                           Ionic strength  =   9.998e-04
                       Mass of water (kg)  =   3.000e-01
                 Total alkalinity (eq/kg)  =  -1.721e-07
                    Total carbon (mol/kg)  =   0.000e+00
                       Total CO2 (mol/kg)  =   0.000e+00
                      Temperature (deg C)  =  25.00
                  Electrical balance (eq)  =   1.903e-10
 Percent error, 100*(Cat-|An|)/(Cat+|An|)  =   0.00
                               Iterations  =   3
                                  Total H  = 3.330224e+01
                                  Total O  = 1.665112e+01

----------------------------Distribution of species----------------------------

                                               Log       Log       Log    mole V
   Species          Molality    Activity  Molality  Activity     Gamma   cm3/mol

   H+              2.208e-07   2.134e-07    -6.656    -6.671    -0.015      0.00
   OH-             4.867e-08   4.696e-08    -7.313    -7.328    -0.016     -4.08
   H2O             7.220e+01   1.000e+00     1.859    -0.000     0.000     18.07
Cl            9.997e-04
   Cl-             9.997e-04   9.646e-04    -3.000    -3.016    -0.016     18.06
H(0)          0.000e+00
   H2              0.000e+00   0.000e+00   -42.015   -42.014     0.000     28.61
Na            9.996e-04
   Na+             9.996e-04   9.647e-04    -3.000    -3.016    -0.015     -1.20
   NaOH            4.529e-21   4.530e-21   -20.344   -20.344     0.000     (0)  
O(0)          8.908e-09
   O2              4.454e-09   4.455e-09    -8.351    -8.351     0.000     30.40

------------------------------Saturation indices-------------------------------

	Phase               SI   log IAP   log K(298 K,   1 atm)

	H2(g)           -38.91    -42.01   -3.10  H2
	H2O(g)           -1.50     -0.00    1.50  H2O
	Halite           -7.61     -6.03    1.58  NaCl
	O2(g)            -5.46     -8.35   -2.89  O2


Using mix 8.	
Using surface 8.	

Mixture 8.	

	  0.000e+00 Solution 7	Solution after simulation 2.                           
	  1.000e+00 Solution 8	Solution after simulation 2.                           
	  0.000e+00 Solution 9	Solution after simulation 2.                           

------------------------------Surface composition------------------------------

Su            
	 -8.863e-12  Surface + diffuse layer charge, eq
	 -1.000e-03  Surface charge, eq
	 -9.649e-03  sigma, C/m**2
	 -8.653e-02  psi, V
	  3.368e+00  -F*psi/RT
	  2.902e+01  exp(-F*psi/RT)
	  1.000e+04  specific area, m**2/g
	  1.000e+04  m**2 for   1.000e+00 g

	Water in diffuse layer: 9.020e-02 kg, 100.0% of total DDL-water.
	Radius of total pore:   7.804e-08 m; of free pore: 6.843e-08 m.

	Total moles in diffuse layer (excluding water), Donnan calculation 

	Element       	     Moles
	Cl            	  8.0709e-06
	H             	  1.6107e-07
	Na            	  1.0079e-03
	O             	  7.0810e-10

Su            
	  1.000e-03  moles
	                                   Mole                     Log
	Species               Moles    Fraction    Molality    Molality

	Su-               1.000e-03       1.000   3.333e-03      -2.477

-----------------------------Solution composition------------------------------

	Elements           Molality       Moles

	Cl                1.000e-03   3.000e-04
	Na                9.999e-04   3.000e-04

----------------------------Description of solution----------------------------

                                       pH  =   6.813      Charge balance
                                       pe  =  12.447      Adjusted to redox equilibrium
       Specific Conductance (uS/cm, 25 oC) = 123
                          Density (g/cm3)  =   0.99708
                        Activity of water  =   1.000
                           Ionic strength  =   1.000e-03
                       Mass of water (kg)  =   3.000e-01
                 Total alkalinity (eq/kg)  =  -9.177e-08
                    Total carbon (mol/kg)  =   0.000e+00
                       Total CO2 (mol/kg)  =   0.000e+00
                      Temperature (deg C)  =  25.00
                  Electrical balance (eq)  =   2.170e-10
 Percent error, 100*(Cat-|An|)/(Cat+|An|)  =   0.00
                               Iterations  =   2
                                  Total H  = 3.330352e+01
                                  Total O  = 1.665176e+01

----------------------------Distribution of species----------------------------

                                               Log       Log       Log    mole V
   Species          Molality    Activity  Molality  Activity     Gamma   cm3/mol

   H+              1.593e-07   1.539e-07    -6.798    -6.813    -0.015      0.00
   OH-             6.748e-08   6.510e-08    -7.171    -7.186    -0.016     -4.08
   H2O             7.219e+01   1.000e+00     1.859    -0.000     0.000     18.07
Cl            1.000e-03
   Cl-             1.000e-03   9.648e-04    -3.000    -3.016    -0.016     18.06
H(0)          0.000e+00
   H2              0.000e+00   0.000e+00   -41.669   -41.669     0.000     28.61
Na            9.999e-04
   Na+             9.999e-04   9.650e-04    -3.000    -3.015    -0.015     -1.20
   NaOH            6.281e-21   6.283e-21   -20.202   -20.202     0.000     (0)  
O(0)          1.812e-09
   O2              9.062e-10   9.064e-10    -9.043    -9.043     0.000     30.40

------------------------------Saturation indices-------------------------------

	Phase               SI   log IAP   log K(298 K,   1 atm)

	H2(g)           -38.57    -41.67   -3.10  H2
	H2O(g)           -1.50     -0.00    1.50  H2O
	Halite           -7.61     -6.03    1.58  NaCl
	O2(g)            -6.15     -9.04   -2.89  O2


Using mix 9.	
Using surface 9.	

Mixture 9.	

	  0.000e+00 Solution 8	Solution after simulation 2.                           
	  1.000e+00 Solution 9	Solution after simulation 2.                           
	  0.000e+00 Solution 10	Solution after simulation 2.                           

------------------------------Surface composition------------------------------

Su            
	  8.775e-12  Surface + diffuse layer charge, eq
	 -1.000e-03  Surface charge, eq
	 -9.649e-03  sigma, C/m**2
	 -8.653e-02  psi, V
	  3.368e+00  -F*psi/RT
	  2.902e+01  exp(-F*psi/RT)
	  1.000e+04  specific area, m**2/g
	  1.000e+04  m**2 for   1.000e+00 g

	Water in diffuse layer: 9.020e-02 kg, 100.0% of total DDL-water.
	Radius of total pore:   7.804e-08 m; of free pore: 6.843e-08 m.

	Total moles in diffuse layer (excluding water), Donnan calculation 

	Element       	     Moles
	Cl            	  8.0711e-06
	H             	  1.3210e-07
	Na            	  1.0079e-03
	O             	  6.9247e-10

Su            
	  1.000e-03  moles
	                                   Mole                     Log
	Species               Moles    Fraction    Molality    Molality

	Su-               1.000e-03       1.000   3.333e-03      -2.477

-----------------------------Solution composition------------------------------

	Elements           Molality       Moles

	Cl                1.000e-03   3.000e-04
	Na                1.000e-03   3.000e-04

----------------------------Description of solution----------------------------

                                       pH  =   6.899      Charge balance
                                       pe  =  12.166      Adjusted to redox equilibrium
       Specific Conductance (uS/cm, 25 oC) = 123
                          Density (g/cm3)  =   0.99708
                        Activity of water  =   1.000
                           Ionic strength  =   1.000e-03
                       Mass of water (kg)  =   3.000e-01
                 Total alkalinity (eq/kg)  =  -4.799e-08
                    Total carbon (mol/kg)  =   0.000e+00
                       Total CO2 (mol/kg)  =   0.000e+00
                      Temperature (deg C)  =  25.00
                  Electrical balance (eq)  =   1.911e-10
 Percent error, 100*(Cat-|An|)/(Cat+|An|)  =   0.00
                               Iterations  =   2
                                  Total H  = 3.330371e+01
                                  Total O  = 1.665186e+01

----------------------------Distribution of species----------------------------

                                               Log       Log       Log    mole V
   Species          Molality    Activity  Molality  Activity     Gamma   cm3/mol

   H+              1.304e-07   1.260e-07    -6.885    -6.899    -0.015      0.00
   OH-             8.241e-08   7.951e-08    -7.084    -7.100    -0.016     -4.08
   H2O             7.219e+01   1.000e+00     1.859    -0.000     0.000     18.07
Cl            1.000e-03
   Cl-             1.000e-03   9.648e-04    -3.000    -3.016    -0.016     18.06
H(0)          0.000e+00
   H2              0.000e+00   0.000e+00   -41.280   -41.280     0.000     28.61
Na            1.000e-03
   Na+             1.000e-03   9.651e-04    -3.000    -3.015    -0.015     -1.20
   NaOH            7.672e-21   7.674e-21   -20.115   -20.115     0.000     (0)  
O(0)          3.031e-10
   O2              1.516e-10   1.516e-10    -9.819    -9.819     0.000     30.40

------------------------------Saturation indices-------------------------------

	Phase               SI   log IAP   log K(298 K,   1 atm)

	H2(g)           -38.18    -41.28   -3.10  H2
	H2O(g)           -1.50     -0.00    1.50  H2O
	Halite           -7.61     -6.03    1.58  NaCl
	O2(g)            -6.93     -9.82   -2.89  O2


Using mix 10.	
Using surface 10.	

Mixture 10.	

	  0.000e+00 Solution 9	Solution after simulation 2.                           
	  1.000e+00 Solution 10	Solution after simulation 2.                           
	  0.000e+00 Solution 11	                                                       

------------------------------Surface composition------------------------------

Su            
	 -1.037e-14  Surface + diffuse layer charge, eq
	 -1.000e-03  Surface charge, eq
	 -9.649e-03  sigma, C/m**2
	 -8.653e-02  psi, V
	  3.368e+00  -F*psi/RT
	  2.902e+01  exp(-F*psi/RT)
	  1.000e+04  specific area, m**2/g
	  1.000e+04  m**2 for   1.000e+00 g

	Water in diffuse layer: 9.020e-02 kg, 100.0% of total DDL-water.
	Radius of total pore:   7.804e-08 m; of free pore: 6.843e-08 m.

	Total moles in diffuse layer (excluding water), Donnan calculation 

	Element       	     Moles
	Cl            	  8.0711e-06
	H             	  1.2085e-07
	Na            	  1.0080e-03
	O             	  7.3160e-10

Su            
	  1.000e-03  moles
	                                   Mole                     Log
	Species               Moles    Fraction    Molality    Molality

	Su-               1.000e-03       1.000   3.333e-03      -2.477

-----------------------------Solution composition------------------------------

	Elements           Molality       Moles

	Cl                1.000e-03   3.000e-04
	Na                1.000e-03   3.000e-04

----------------------------Description of solution----------------------------

                                       pH  =   6.939      Charge balance
                                       pe  =  11.913      Adjusted to redox equilibrium
       Specific Conductance (uS/cm, 25 oC) = 123
                          Density (g/cm3)  =   0.99708
                        Activity of water  =   1.000
                           Ionic strength  =   1.000e-03
                       Mass of water (kg)  =   3.000e-01
                 Total alkalinity (eq/kg)  =  -2.901e-08
                    Total carbon (mol/kg)  =   0.000e+00
                       Total CO2 (mol/kg)  =   0.000e+00
                      Temperature (deg C)  =  25.00
                  Electrical balance (eq)  =   2.013e-10
 Percent error, 100*(Cat-|An|)/(Cat+|An|)  =   0.00
                               Iterations  =   3
                                  Total H  = 3.330373e+01
                                  Total O  = 1.665187e+01

----------------------------Distribution of species----------------------------

                                               Log       Log       Log    mole V
   Species          Molality    Activity  Molality  Activity     Gamma   cm3/mol

   H+              1.192e-07   1.152e-07    -6.924    -6.939    -0.015      0.00
   OH-             9.017e-08   8.700e-08    -7.045    -7.060    -0.016     -4.08
   H2O             7.219e+01   1.000e+00     1.859    -0.000     0.000     18.07
Cl            1.000e-03
   Cl-             1.000e-03   9.648e-04    -3.000    -3.016    -0.016     18.06
H(0)          0.000e+00
   H2              0.000e+00   0.000e+00   -40.854   -40.854     0.000     28.61
Na            1.000e-03
   Na+             1.000e-03   9.651e-04    -3.000    -3.015    -0.015     -1.20
   NaOH            8.394e-21   8.396e-21   -20.076   -20.076     0.000     (0)  
O(0)          4.246e-11
   O2              2.123e-11   2.123e-11   -10.673   -10.673     0.000     30.40

------------------------------Saturation indices-------------------------------

	Phase               SI   log IAP   log K(298 K,   1 atm)

	H2(g)           -37.75    -40.85   -3.10  H2
	H2O(g)           -1.50     -0.00    1.50  H2O
	Halite           -7.61     -6.03    1.58  NaCl
	O2(g)            -7.78    -10.67   -2.89  O2


------------------
End of simulation.
------------------

------------------------------------
Reading input data for simulation 3.
------------------------------------

------------------------------
End of Run after 0.67 Seconds.
------------------------------

