WARNING: Database file from DATABASE keyword is used; command line argument ignored.
   Input file: deb2
  Output file: deb2.out
Database file: ../database/phreeqc.dat

------------------
Reading data base.
------------------

	SOLUTION_MASTER_SPECIES
	SOLUTION_SPECIES
	PHASES
	EXCHANGE_MASTER_SPECIES
	EXCHANGE_SPECIES
	SURFACE_MASTER_SPECIES
	SURFACE_SPECIES
	RATES
	END
------------------------------------
Reading input data for simulation 1.
------------------------------------

	DATABASE ../database/phreeqc.dat
	SELECTED_OUTPUT 101
	    file                 deb2_101.sel
	USER_PUNCH 101
	    headings Mu SC
	    start
	10 PUNCH STR_F$(MU, 20, 12)
	20 PUNCH STR_F$(SC, 20, 10)
	    end
	KNOBS
	 iterations 400
	SURFACE_MASTER_SPECIES
	 Su Su-
	SURFACE_SPECIES
	 Su- = Su-
	 log_k 0
	SOLUTION 1-2
	 pH 7.0
	 Na 1
	 Cl 1 charge
	 water 1
	SURFACE 1
	 Su 0.1 1e4 1
	 Hfo_w 1e-3 600 1
	 equilibrate 1
	 donnan debye_lengths 1 limit_ddl 0.8 viscosity 1# 1e-9
	SELECTED_OUTPUT
	 file d2.prn
	 reset false#; -high_pr
	USER_PUNCH
	 heading H2O_aq H2O_Su H2O_Hfo H2O_tot newH2O_tot Na Cl pH
	 start
	  2 if sim_no = 1 then put(edl("water"), 1)
	 10 punch tot("water"), edl("water", "Su"), edl("water", "Hfo"), tot("water") + edl("water", "Su") + edl("water", "Hfo"), 0.5*tot("water") + edl("water", "Su") + edl("water", "Hfo"), tot("Na")*1e3, tot("Cl")*1e3 , -la("H+")
	 end
	END
-------------------------------------------
Beginning of initial solution calculations.
-------------------------------------------

Initial solution 1.	

-----------------------------Solution composition------------------------------

	Elements           Molality       Moles

	Cl                1.000e-03   1.000e-03  Charge balance
	Na                1.000e-03   1.000e-03

----------------------------Description of solution----------------------------

                                       pH  =   7.000    
                                       pe  =   4.000    
      Specific Conductance (µS/cm,  25°C)  = 123
                          Density (g/cm³)  =   0.99708
                               Volume (L)  =   1.00298
                        Activity of water  =   1.000
                 Ionic strength (mol/kgw)  =   1.000e-03
                       Mass of water (kg)  =   1.000e+00
                 Total alkalinity (eq/kg)  =   1.451e-09
                         Temperature (°C)  =  25.00
                  Electrical balance (eq)  =  -7.745e-12
 Percent error, 100*(Cat-|An|)/(Cat+|An|)  =  -0.00
                               Iterations  =   8
                                  Total H  = 1.110124e+02
                                  Total O  = 5.550622e+01

----------------------------Distribution of species----------------------------

                                               Log       Log       Log    mole V
   Species          Molality    Activity  Molality  Activity     Gamma   cm³/mol

   OH-             1.049e-07   1.012e-07    -6.979    -6.995    -0.016     -4.11
   H+              1.035e-07   1.000e-07    -6.985    -7.000    -0.015      0.00
   H2O             5.551e+01   1.000e+00     1.744    -0.000     0.000     18.07
Cl            1.000e-03
   Cl-             1.000e-03   9.649e-04    -3.000    -3.016    -0.016     18.07
H(0)          1.416e-25
   H2              7.078e-26   7.079e-26   -25.150   -25.150     0.000     28.61
Na            1.000e-03
   Na+             1.000e-03   9.652e-04    -3.000    -3.015    -0.015     -1.48
   NaOH            9.767e-21   9.769e-21   -20.010   -20.010     0.000     (0)  
O(0)          0.000e+00
   O2              0.000e+00   0.000e+00   -42.080   -42.080     0.000     30.40

------------------------------Saturation indices-------------------------------

  Phase               SI** log IAP   log K(298 K,   1 atm)

  H2(g)           -22.05    -25.15   -3.10  H2
  H2O(g)           -1.50     -0.00    1.50  H2O
  Halite           -7.60     -6.03    1.57  NaCl
  O2(g)           -39.19    -42.08   -2.89  O2

**For a gas, SI = log10(fugacity). Fugacity = pressure * phi / 1 atm.
  For ideal gases, phi = 1.

------------------------------------------------------
Beginning of initial surface-composition calculations.
------------------------------------------------------

Surface 1.	

Diffuse Double Layer Surface-Complexation Model

Hfo           
	 -1.046e-17  Surface + diffuse layer charge, eq
	  3.494e-05  Surface charge, eq
	  5.619e-03  sigma, C/m²
	  6.180e-02  psi, V
	 -2.406e+00  -F*psi/RT
	  9.021e-02  exp(-F*psi/RT)
	  6.000e+02  specific area, m²/g
	  6.000e+02  m² for   1.000e+00 g

	Water in diffuse layer: 5.633e-03 kg,  5.7% of total DDL-water.
	Radius of total pore:   2.075e-07 m; of free pore: 1.978e-07 m.

	Total moles in diffuse layer (excluding water), Donnan calculation.
	Donnan Layer potential, psi_DL =  4.753e-02 V.
	Boltzmann factor, exp(-psi_DL * F / RT) = 1.572e-01 (= c_DL / c_free if z is +1).

	Element       	     Moles
	Cl            	  3.5824e-05
	H             	  3.8498e-09
	Na            	  8.8583e-07
	O             	  3.7581e-09

Hfo_w         
	  1.000e-03  moles
	                                   Mole                     Log
	Species               Moles    Fraction    Molality    Molality

	Hfo_wOH           7.656e-04       0.766   7.656e-04      -3.116
	Hfo_wOH2+         1.347e-04       0.135   1.347e-04      -3.871
	Hfo_wO-           9.972e-05       0.100   9.972e-05      -4.001

Su            
	  9.714e-17  Surface + diffuse layer charge, eq
	 -1.000e-01  Surface charge, eq
	 -9.649e-01  sigma, C/m²
	 -3.214e-01  psi, V
	  1.251e+01  -F*psi/RT
	  2.706e+05  exp(-F*psi/RT)
	  1.000e+04  specific area, m²/g
	  1.000e+04  m² for   1.000e+00 g

	Water in diffuse layer: 9.389e-02 kg, 94.3% of total DDL-water.
	Radius of total pore:   2.075e-07 m; of free pore: 1.978e-07 m.

	Total moles in diffuse layer (excluding water), Donnan calculation.
	Donnan Layer potential, psi_DL = -1.791e-01 V.
	Boltzmann factor, exp(-psi_DL * F / RT) = 1.065e+03 (= c_DL / c_free if z is +1).

	Element       	     Moles
	Cl            	  8.8159e-08
	H             	  1.0344e-05
	Na            	  9.9990e-02
	O             	  9.2483e-12

Su            
	  1.000e-01  moles
	                                   Mole                     Log
	Species               Moles    Fraction    Molality    Molality

	Su-               1.000e-01       1.000   1.000e-01      -1.000

-----------------------------------------
Beginning of batch-reaction calculations.
-----------------------------------------

Reaction step 1.

Using solution 1.	
Using surface 1.	

------------------------------Surface composition------------------------------

Diffuse Double Layer Surface-Complexation Model

Hfo           
	 -8.913e-15  Surface + diffuse layer charge, eq
	  3.494e-05  Surface charge, eq
	  5.619e-03  sigma, C/m²
	  6.180e-02  psi, V
	 -2.406e+00  -F*psi/RT
	  9.021e-02  exp(-F*psi/RT)
	  6.000e+02  specific area, m²/g
	  6.000e+02  m² for   1.000e+00 g

	Water in diffuse layer: 5.633e-03 kg,  5.7% of total DDL-water.
	Radius of total pore:   2.075e-07 m; of free pore: 1.978e-07 m.

	Total moles in diffuse layer (excluding water), Donnan calculation.
	Donnan Layer potential, psi_DL =  4.753e-02 V.
	Boltzmann factor, exp(-psi_DL * F / RT) = 1.572e-01 (= c_DL / c_free if z is +1).

	Element       	     Moles
	Cl            	  3.5824e-05
	H             	  3.8498e-09
	Na            	  8.8583e-07
	O             	  3.7581e-09

Hfo_w         
	  1.000e-03  moles
	                                   Mole                     Log
	Species               Moles    Fraction    Molality    Molality

	Hfo_wOH           7.656e-04       0.766   7.656e-04      -3.116
	Hfo_wOH2+         1.347e-04       0.135   1.347e-04      -3.871
	Hfo_wO-           9.972e-05       0.100   9.972e-05      -4.001

Su            
	  2.536e-11  Surface + diffuse layer charge, eq
	 -1.000e-01  Surface charge, eq
	 -9.649e-01  sigma, C/m²
	 -3.214e-01  psi, V
	  1.251e+01  -F*psi/RT
	  2.706e+05  exp(-F*psi/RT)
	  1.000e+04  specific area, m²/g
	  1.000e+04  m² for   1.000e+00 g

	Water in diffuse layer: 9.389e-02 kg, 94.3% of total DDL-water.
	Radius of total pore:   2.075e-07 m; of free pore: 1.978e-07 m.

	Total moles in diffuse layer (excluding water), Donnan calculation.
	Donnan Layer potential, psi_DL = -1.791e-01 V.
	Boltzmann factor, exp(-psi_DL * F / RT) = 1.065e+03 (= c_DL / c_free if z is +1).

	Element       	     Moles
	Cl            	  8.8159e-08
	H             	  1.0344e-05
	Na            	  9.9990e-02
	O             	  9.2483e-12

Su            
	  1.000e-01  moles
	                                   Mole                     Log
	Species               Moles    Fraction    Molality    Molality

	Su-               1.000e-01       1.000   1.000e-01      -1.000

-----------------------------Solution composition------------------------------

	Elements           Molality       Moles

	Cl                1.000e-03   1.000e-03
	Na                1.000e-03   1.000e-03

----------------------------Description of solution----------------------------

                                       pH  =   7.000      Charge balance
                                       pe  =   3.000      Adjusted to redox equilibrium
      Specific Conductance (µS/cm,  25°C)  = 123
                          Density (g/cm³)  =   0.99708
                               Volume (L)  =   1.00298
                        Activity of water  =   1.000
                 Ionic strength (mol/kgw)  =   1.000e-03
                       Mass of water (kg)  =   1.000e+00
                 Total alkalinity (eq/kg)  =   1.451e-09
                         Temperature (°C)  =  25.00
                  Electrical balance (eq)  =  -7.746e-12
 Percent error, 100*(Cat-|An|)/(Cat+|An|)  =  -0.00
                               Iterations  =   0 (1 overall)
                                  Total H  = 1.110124e+02
                                  Total O  = 5.550622e+01

----------------------------Distribution of species----------------------------

                                               Log       Log       Log    mole V
   Species          Molality    Activity  Molality  Activity     Gamma   cm³/mol

   OH-             1.049e-07   1.012e-07    -6.979    -6.995    -0.016     -4.11
   H+              1.035e-07   1.000e-07    -6.985    -7.000    -0.015      0.00
   H2O             6.103e+01   1.000e+00     1.786    -0.000     0.000     18.07
Cl            1.000e-03
   Cl-             1.000e-03   9.649e-04    -3.000    -3.016    -0.016     18.07
H(0)          1.416e-23
   H2              7.078e-24   7.079e-24   -23.150   -23.150     0.000     28.61
Na            1.000e-03
   Na+             1.000e-03   9.652e-04    -3.000    -3.015    -0.015     -1.48
   NaOH            9.767e-21   9.769e-21   -20.010   -20.010     0.000     (0)  
O(0)          0.000e+00
   O2              0.000e+00   0.000e+00   -46.080   -46.080     0.000     30.40

------------------------------Saturation indices-------------------------------

  Phase               SI** log IAP   log K(298 K,   1 atm)

  H2(g)           -20.05    -23.15   -3.10  H2
  H2O(g)           -1.50     -0.00    1.50  H2O
  Halite           -7.60     -6.03    1.57  NaCl
  O2(g)           -43.19    -46.08   -2.89  O2

**For a gas, SI = log10(fugacity). Fugacity = pressure * phi / 1 atm.
  For ideal gases, phi = 1.

------------------
End of simulation.
------------------

------------------------------------
Reading input data for simulation 2.
------------------------------------

	USE surface 1
	MIX 1
	 1 0.5
	SAVE solution 1
	 SAVE surface 1
	knobs
	numerical_derivatives
	END
-----------------------------------------
Beginning of batch-reaction calculations.
-----------------------------------------

Reaction step 1.

Using mix 1.	
Using surface 1.	

Mixture 1.	

	  5.000e-01 Solution 1	                                                       

------------------------------Surface composition------------------------------

Diffuse Double Layer Surface-Complexation Model

Hfo           
	 -1.288e-14  Surface + diffuse layer charge, eq
	  3.490e-05  Surface charge, eq
	  5.613e-03  sigma, C/m²
	  6.183e-02  psi, V
	 -2.407e+00  -F*psi/RT
	  9.013e-02  exp(-F*psi/RT)
	  6.000e+02  specific area, m²/g
	  6.000e+02  m² for   1.000e+00 g

	Water in diffuse layer: 5.531e-03 kg,  5.7% of total DDL-water.
	Radius of total pore:   1.131e-07 m; of free pore: 1.035e-07 m.

	Total moles in diffuse layer (excluding water), Donnan calculation.
	Donnan Layer potential, psi_DL =  4.803e-02 V.
	Boltzmann factor, exp(-psi_DL * F / RT) = 1.542e-01 (= c_DL / c_free if z is +1).

	Element       	     Moles
	Cl            	  3.5746e-05
	H             	  3.8484e-09
	Na            	  8.4994e-07
	O             	  3.7601e-09

Hfo_w         
	  1.000e-03  moles
	                                   Mole                     Log
	Species               Moles    Fraction    Molality    Molality

	Hfo_wOH           7.656e-04       0.766   1.526e-03      -2.817
	Hfo_wOH2+         1.346e-04       0.135   2.683e-04      -3.571
	Hfo_wO-           9.974e-05       0.100   1.988e-04      -3.702

Su            
	  3.689e-11  Surface + diffuse layer charge, eq
	 -1.000e-01  Surface charge, eq
	 -9.649e-01  sigma, C/m²
	 -3.214e-01  psi, V
	  1.251e+01  -F*psi/RT
	  2.715e+05  exp(-F*psi/RT)
	  1.000e+04  specific area, m²/g
	  1.000e+04  m² for   1.000e+00 g

	Water in diffuse layer: 9.218e-02 kg, 94.3% of total DDL-water.
	Radius of total pore:   1.131e-07 m; of free pore: 1.035e-07 m.

	Total moles in diffuse layer (excluding water), Donnan calculation.
	Donnan Layer potential, psi_DL = -1.796e-01 V.
	Boltzmann factor, exp(-psi_DL * F / RT) = 1.088e+03 (= c_DL / c_free if z is +1).

	Element       	     Moles
	Cl            	  8.4402e-08
	H             	  1.0387e-05
	Na            	  9.9990e-02
	O             	  8.9538e-12

Su            
	  1.000e-01  moles
	                                   Mole                     Log
	Species               Moles    Fraction    Molality    Molality

	Su-               1.000e-01       1.000   1.993e-01      -0.701

-----------------------------Solution composition------------------------------

	Elements           Molality       Moles

	Cl                9.966e-04   5.001e-04
	Na                9.966e-04   5.001e-04

----------------------------Description of solution----------------------------

                                       pH  =   7.000      Charge balance
                                       pe  =  11.423      Adjusted to redox equilibrium
      Specific Conductance (µS/cm,  25°C)  = 122
                          Density (g/cm³)  =   0.99708
                               Volume (L)  =   0.50330
                        Activity of water  =   1.000
                 Ionic strength (mol/kgw)  =   9.967e-04
                       Mass of water (kg)  =   5.018e-01
                 Total alkalinity (eq/kg)  =   1.309e-09
                         Temperature (°C)  =  25.00
                  Electrical balance (eq)  =  -3.872e-12
 Percent error, 100*(Cat-|An|)/(Cat+|An|)  =  -0.00
                               Iterations  =   0 (10 overall)
                                  Total H  = 5.570688e+01
                                  Total O  = 2.785344e+01

----------------------------Distribution of species----------------------------

                                               Log       Log       Log    mole V
   Species          Molality    Activity  Molality  Activity     Gamma   cm³/mol

   OH-             1.048e-07   1.011e-07    -6.980    -6.995    -0.016     -4.11
   H+              1.035e-07   1.001e-07    -6.985    -7.000    -0.015      0.00
   H2O             6.631e+01   1.000e+00     1.822    -0.000     0.000     18.07
Cl            9.966e-04
   Cl-             9.966e-04   9.616e-04    -3.001    -3.017    -0.016     18.07
H(0)          2.017e-40
   H2              1.008e-40   1.009e-40   -39.996   -39.996     0.000     28.61
Na            9.966e-04
   Na+             9.966e-04   9.619e-04    -3.001    -3.017    -0.015     -1.48
   NaOH            9.727e-21   9.729e-21   -20.012   -20.012     0.000     (0)  
O(0)          8.194e-13
   O2              4.097e-13   4.098e-13   -12.388   -12.387     0.000     30.40

------------------------------Saturation indices-------------------------------

  Phase               SI** log IAP   log K(298 K,   1 atm)

  H2(g)           -36.90    -40.00   -3.10  H2
  H2O(g)           -1.50     -0.00    1.50  H2O
  Halite           -7.60     -6.03    1.57  NaCl
  O2(g)            -9.50    -12.39   -2.89  O2

**For a gas, SI = log10(fugacity). Fugacity = pressure * phi / 1 atm.
  For ideal gases, phi = 1.

------------------
End of simulation.
------------------

------------------------------------
Reading input data for simulation 3.
------------------------------------

	USE surface 1
	 USE mix 1
	SAVE solution 1
	 SAVE surface 1
	END
-----------------------------------------
Beginning of batch-reaction calculations.
-----------------------------------------

Reaction step 1.

Using mix 1.	
Using surface 1.	

Mixture 1.	

	  5.000e-01 Solution 1	Solution after simulation 2.                           

------------------------------Surface composition------------------------------

Diffuse Double Layer Surface-Complexation Model

Hfo           
	 -2.246e-15  Surface + diffuse layer charge, eq
	  3.478e-05  Surface charge, eq
	  5.593e-03  sigma, C/m²
	  6.189e-02  psi, V
	 -2.409e+00  -F*psi/RT
	  8.991e-02  exp(-F*psi/RT)
	  6.000e+02  specific area, m²/g
	  6.000e+02  m² for   1.000e+00 g

	Water in diffuse layer: 5.379e-03 kg,  5.7% of total DDL-water.
	Radius of total pore:   6.578e-08 m; of free pore: 5.610e-08 m.

	Total moles in diffuse layer (excluding water), Donnan calculation.
	Donnan Layer potential, psi_DL =  4.887e-02 V.
	Boltzmann factor, exp(-psi_DL * F / RT) = 1.492e-01 (= c_DL / c_free if z is +1).

	Element       	     Moles
	Cl            	  3.5566e-05
	H             	  3.8538e-09
	Na            	  7.9193e-07
	O             	  3.7755e-09

Hfo_w         
	  1.000e-03  moles
	                                   Mole                     Log
	Species               Moles    Fraction    Molality    Molality

	Hfo_wOH           7.656e-04       0.766   3.019e-03      -2.520
	Hfo_wOH2+         1.346e-04       0.135   5.306e-04      -3.275
	Hfo_wO-           9.979e-05       0.100   3.935e-04      -3.405

Su            
	  6.457e-12  Surface + diffuse layer charge, eq
	 -1.000e-01  Surface charge, eq
	 -9.649e-01  sigma, C/m²
	 -3.217e-01  psi, V
	  1.252e+01  -F*psi/RT
	  2.742e+05  exp(-F*psi/RT)
	  1.000e+04  specific area, m²/g
	  1.000e+04  m² for   1.000e+00 g

	Water in diffuse layer: 8.964e-02 kg, 94.3% of total DDL-water.
	Radius of total pore:   6.578e-08 m; of free pore: 5.610e-08 m.

	Total moles in diffuse layer (excluding water), Donnan calculation.
	Donnan Layer potential, psi_DL = -1.806e-01 V.
	Boltzmann factor, exp(-psi_DL * F / RT) = 1.130e+03 (= c_DL / c_free if z is +1).

	Element       	     Moles
	Cl            	  7.8245e-08
	H             	  1.0509e-05
	Na            	  9.9990e-02
	O             	  8.9174e-11

Su            
	  1.000e-01  moles
	                                   Mole                     Log
	Species               Moles    Fraction    Molality    Molality

	Su-               1.000e-01       1.000   3.943e-01      -0.404

-----------------------------Solution composition------------------------------

	Elements           Molality       Moles

	Cl                9.867e-04   2.502e-04
	Na                9.867e-04   2.502e-04

----------------------------Description of solution----------------------------

                                       pH  =   6.999      Charge balance
                                       pe  =  12.185      Adjusted to redox equilibrium
      Specific Conductance (µS/cm,  25°C)  = 121
                          Density (g/cm³)  =   0.99708
                               Volume (L)  =   0.25435
                        Activity of water  =   1.000
                 Ionic strength (mol/kgw)  =   9.868e-04
                       Mass of water (kg)  =   2.536e-01
                 Total alkalinity (eq/kg)  =   9.089e-10
                         Temperature (°C)  =  25.00
                  Electrical balance (eq)  =   3.494e-11
 Percent error, 100*(Cat-|An|)/(Cat+|An|)  =   0.00
                               Iterations  =   0 (6 overall)
                                  Total H  = 2.815235e+01
                                  Total O  = 1.407618e+01

----------------------------Distribution of species----------------------------

                                               Log       Log       Log    mole V
   Species          Molality    Activity  Molality  Activity     Gamma   cm³/mol

   OH-             1.046e-07   1.010e-07    -6.980    -6.996    -0.015     -4.11
   H+              1.037e-07   1.003e-07    -6.984    -6.999    -0.015      0.00
   H2O             7.630e+01   1.000e+00     1.883    -0.000     0.000     18.07
Cl            9.867e-04
   Cl-             9.867e-04   9.523e-04    -3.006    -3.021    -0.015     18.07
H(0)          0.000e+00
   H2              0.000e+00   0.000e+00   -41.517   -41.517     0.000     28.61
Na            9.867e-04
   Na+             9.867e-04   9.526e-04    -3.006    -3.021    -0.015     -1.48
   NaOH            9.614e-21   9.616e-21   -20.017   -20.017     0.000     (0)  
O(0)          9.022e-10
   O2              4.511e-10   4.512e-10    -9.346    -9.346     0.000     30.40

------------------------------Saturation indices-------------------------------

  Phase               SI** log IAP   log K(298 K,   1 atm)

  H2(g)           -38.42    -41.52   -3.10  H2
  H2O(g)           -1.50     -0.00    1.50  H2O
  Halite           -7.61     -6.04    1.57  NaCl
  O2(g)            -6.45     -9.35   -2.89  O2

**For a gas, SI = log10(fugacity). Fugacity = pressure * phi / 1 atm.
  For ideal gases, phi = 1.

------------------
End of simulation.
------------------

------------------------------------
Reading input data for simulation 4.
------------------------------------

	USE surface 1
	 USE mix 1
	SAVE solution 1
	 SAVE surface 1
	END
-----------------------------------------
Beginning of batch-reaction calculations.
-----------------------------------------

Reaction step 1.

Using mix 1.	
Using surface 1.	

Mixture 1.	

	  5.000e-01 Solution 1	Solution after simulation 3.                           

------------------------------Surface composition------------------------------

Diffuse Double Layer Surface-Complexation Model

Hfo           
	 -2.596e-13  Surface + diffuse layer charge, eq
	  3.449e-05  Surface charge, eq
	  5.546e-03  sigma, C/m²
	  6.203e-02  psi, V
	 -2.414e+00  -F*psi/RT
	  8.942e-02  exp(-F*psi/RT)
	  6.000e+02  specific area, m²/g
	  6.000e+02  m² for   1.000e+00 g

	Water in diffuse layer: 5.187e-03 kg,  5.7% of total DDL-water.
	Radius of total pore:   4.185e-08 m; of free pore: 3.206e-08 m.

	Total moles in diffuse layer (excluding water), Donnan calculation.
	Donnan Layer potential, psi_DL =  5.014e-02 V.
	Boltzmann factor, exp(-psi_DL * F / RT) = 1.421e-01 (= c_DL / c_free if z is +1).

	Element       	     Moles
	Cl            	  3.5194e-05
	H             	  3.8783e-09
	Na            	  7.1030e-07
	O             	  3.8063e-09

Hfo_w         
	  1.000e-03  moles
	                                   Mole                     Log
	Species               Moles    Fraction    Molality    Molality

	Hfo_wOH           7.657e-04       0.766   5.881e-03      -2.231
	Hfo_wOH2+         1.344e-04       0.134   1.032e-03      -2.986
	Hfo_wO-           9.992e-05       0.100   7.675e-04      -3.115

Su            
	  7.527e-10  Surface + diffuse layer charge, eq
	 -1.000e-01  Surface charge, eq
	 -9.649e-01  sigma, C/m²
	 -3.223e-01  psi, V
	  1.254e+01  -F*psi/RT
	  2.807e+05  exp(-F*psi/RT)
	  1.000e+04  specific area, m²/g
	  1.000e+04  m² for   1.000e+00 g

	Water in diffuse layer: 8.645e-02 kg, 94.3% of total DDL-water.
	Radius of total pore:   4.185e-08 m; of free pore: 3.206e-08 m.

	Total moles in diffuse layer (excluding water), Donnan calculation.
	Donnan Layer potential, psi_DL = -1.822e-01 V.
	Boltzmann factor, exp(-psi_DL * F / RT) = 1.200e+03 (= c_DL / c_free if z is +1).

	Element       	     Moles
	Cl            	  6.9446e-08
	H             	  1.0799e-05
	Na            	  9.9989e-02
	O             	  8.6753e-11

Su            
	  1.000e-01  moles
	                                   Mole                     Log
	Species               Moles    Fraction    Molality    Molality

	Su-               1.000e-01       1.000   7.681e-01      -0.115

-----------------------------Solution composition------------------------------

	Elements           Molality       Moles

	Cl                9.640e-04   1.255e-04
	Na                9.640e-04   1.255e-04

----------------------------Description of solution----------------------------

                                       pH  =   6.997      Charge balance
                                       pe  =  12.188      Adjusted to redox equilibrium
      Specific Conductance (µS/cm,  25°C)  = 118
                          Density (g/cm³)  =   0.99708
                               Volume (L)  =   0.13057
                        Activity of water  =   1.000
                 Ionic strength (mol/kgw)  =   9.641e-04
                       Mass of water (kg)  =   1.302e-01
                 Total alkalinity (eq/kg)  =   1.903e-11
                         Temperature (°C)  =  25.00
                  Electrical balance (eq)  =   2.392e-11
 Percent error, 100*(Cat-|An|)/(Cat+|An|)  =   0.00
                               Iterations  =   0 (5 overall)
                                  Total H  = 1.445234e+01
                                  Total O  = 7.226172e+00

----------------------------Distribution of species----------------------------

                                               Log       Log       Log    mole V
   Species          Molality    Activity  Molality  Activity     Gamma   cm³/mol

   OH-             1.041e-07   1.005e-07    -6.982    -6.998    -0.015     -4.11
   H+              1.041e-07   1.007e-07    -6.983    -6.997    -0.015      0.00
   H2O             9.457e+01   1.000e+00     1.976    -0.000     0.000     18.07
Cl            9.640e-04
   Cl-             9.640e-04   9.307e-04    -3.016    -3.031    -0.015     18.07
H(0)          0.000e+00
   H2              0.000e+00   0.000e+00   -41.521   -41.521     0.000     28.61
Na            9.640e-04
   Na+             9.640e-04   9.310e-04    -3.016    -3.031    -0.015     -1.48
   NaOH            9.356e-21   9.358e-21   -20.029   -20.029     0.000     (0)  
O(0)          9.168e-10
   O2              4.584e-10   4.585e-10    -9.339    -9.339     0.000     30.40

------------------------------Saturation indices-------------------------------

  Phase               SI** log IAP   log K(298 K,   1 atm)

  H2(g)           -38.42    -41.52   -3.10  H2
  H2O(g)           -1.50     -0.00    1.50  H2O
  Halite           -7.63     -6.06    1.57  NaCl
  O2(g)            -6.45     -9.34   -2.89  O2

**For a gas, SI = log10(fugacity). Fugacity = pressure * phi / 1 atm.
  For ideal gases, phi = 1.

------------------
End of simulation.
------------------

------------------------------------
Reading input data for simulation 5.
------------------------------------

	USE surface 1
	 USE mix 1
	SAVE solution 1
	 SAVE surface 1
	END
-----------------------------------------
Beginning of batch-reaction calculations.
-----------------------------------------

Reaction step 1.

Using mix 1.	
Using surface 1.	

Mixture 1.	

	  5.000e-01 Solution 1	Solution after simulation 4.                           

------------------------------Surface composition------------------------------

Diffuse Double Layer Surface-Complexation Model

Hfo           
	  9.784e-14  Surface + diffuse layer charge, eq
	  3.395e-05  Surface charge, eq
	  5.459e-03  sigma, C/m²
	  6.227e-02  psi, V
	 -2.424e+00  -F*psi/RT
	  8.859e-02  exp(-F*psi/RT)
	  6.000e+02  specific area, m²/g
	  6.000e+02  m² for   1.000e+00 g

	Water in diffuse layer: 4.986e-03 kg,  5.7% of total DDL-water.
	Radius of total pore:   2.957e-08 m; of free pore: 1.957e-08 m.

	Total moles in diffuse layer (excluding water), Donnan calculation.
	Donnan Layer potential, psi_DL =  5.178e-02 V.
	Boltzmann factor, exp(-psi_DL * F / RT) = 1.333e-01 (= c_DL / c_free if z is +1).

	Element       	     Moles
	Cl            	  3.4555e-05
	H             	  3.9356e-09
	Na            	  6.1368e-07
	O             	  3.8825e-09

Hfo_w         
	  1.000e-03  moles
	                                   Mole                     Log
	Species               Moles    Fraction    Molality    Molality

	Hfo_wOH           7.657e-04       0.766   1.116e-02      -1.953
	Hfo_wOH2+         1.341e-04       0.134   1.954e-03      -2.709
	Hfo_wO-           1.002e-04       0.100   1.459e-03      -2.836

Su            
	 -2.882e-10  Surface + diffuse layer charge, eq
	 -1.000e-01  Surface charge, eq
	 -9.649e-01  sigma, C/m²
	 -3.234e-01  psi, V
	  1.259e+01  -F*psi/RT
	  2.929e+05  exp(-F*psi/RT)
	  1.000e+04  specific area, m²/g
	  1.000e+04  m² for   1.000e+00 g

	Water in diffuse layer: 8.310e-02 kg, 94.3% of total DDL-water.
	Radius of total pore:   2.957e-08 m; of free pore: 1.957e-08 m.

	Total moles in diffuse layer (excluding water), Donnan calculation.
	Donnan Layer potential, psi_DL = -1.843e-01 V.
	Boltzmann factor, exp(-psi_DL * F / RT) = 1.303e+03 (= c_DL / c_free if z is +1).

	Element       	     Moles
	Cl            	  5.8911e-08
	H             	  1.1342e-05
	Na            	  9.9989e-02
	O             	  2.8227e-10

Su            
	  1.000e-01  moles
	                                   Mole                     Log
	Species               Moles    Fraction    Molality    Molality

	Su-               1.000e-01       1.000   1.457e+00       0.163

-----------------------------Solution composition------------------------------

	Elements           Molality       Moles

	Cl                9.236e-04   6.340e-05
	Na                9.236e-04   6.340e-05

----------------------------Description of solution----------------------------

                                       pH  =   6.994      Charge balance
                                       pe  =  12.331      Adjusted to redox equilibrium
      Specific Conductance (µS/cm,  25°C)  = 113
                          Density (g/cm³)  =   0.99708
                               Volume (L)  =   0.06885
                        Activity of water  =   1.000
                 Ionic strength (mol/kgw)  =   9.237e-04
                       Mass of water (kg)  =   6.864e-02
                 Total alkalinity (eq/kg)  =  -1.432e-09
                         Temperature (°C)  =  25.00
                  Electrical balance (eq)  =   7.645e-10
 Percent error, 100*(Cat-|An|)/(Cat+|An|)  =   0.00
                               Iterations  =   0 (7 overall)
                                  Total H  = 7.620054e+00
                                  Total O  = 3.810027e+00

----------------------------Distribution of species----------------------------

                                               Log       Log       Log    mole V
   Species          Molality    Activity  Molality  Activity     Gamma   cm³/mol

   H+              1.048e-07   1.014e-07    -6.980    -6.994    -0.014      0.00
   OH-             1.033e-07   9.983e-08    -6.986    -7.001    -0.015     -4.11
   H2O             1.267e+02   1.000e+00     2.103    -0.000     0.000     18.07
Cl            9.236e-04
   Cl-             9.236e-04   8.924e-04    -3.035    -3.049    -0.015     18.07
H(0)          0.000e+00
   H2              0.000e+00   0.000e+00   -41.800   -41.800     0.000     28.61
Na            9.236e-04
   Na+             9.236e-04   8.926e-04    -3.035    -3.049    -0.015     -1.48
   NaOH            8.909e-21   8.911e-21   -20.050   -20.050     0.000     (0)  
O(0)          3.317e-09
   O2              1.659e-09   1.659e-09    -8.780    -8.780     0.000     30.40

------------------------------Saturation indices-------------------------------

  Phase               SI** log IAP   log K(298 K,   1 atm)

  H2(g)           -38.70    -41.80   -3.10  H2
  H2O(g)           -1.50     -0.00    1.50  H2O
  Halite           -7.67     -6.10    1.57  NaCl
  O2(g)            -5.89     -8.78   -2.89  O2

**For a gas, SI = log10(fugacity). Fugacity = pressure * phi / 1 atm.
  For ideal gases, phi = 1.

------------------
End of simulation.
------------------

------------------------------------
Reading input data for simulation 6.
------------------------------------

	USE surface 1
	 USE mix 1
	SAVE solution 1
	 SAVE surface 1
	END
-----------------------------------------
Beginning of batch-reaction calculations.
-----------------------------------------

Reaction step 1.

Using mix 1.	
Using surface 1.	

Mixture 1.	

	  5.000e-01 Solution 1	Solution after simulation 5.                           

------------------------------Surface composition------------------------------

Diffuse Double Layer Surface-Complexation Model

Hfo           
	  1.330e-13  Surface + diffuse layer charge, eq
	  3.315e-05  Surface charge, eq
	  5.331e-03  sigma, C/m²
	  6.256e-02  psi, V
	 -2.435e+00  -F*psi/RT
	  8.760e-02  exp(-F*psi/RT)
	  6.000e+02  specific area, m²/g
	  6.000e+02  m² for   1.000e+00 g

	Water in diffuse layer: 4.805e-03 kg,  5.7% of total DDL-water.
	Radius of total pore:   2.310e-08 m; of free pore: 1.279e-08 m.

	Total moles in diffuse layer (excluding water), Donnan calculation.
	Donnan Layer potential, psi_DL =  5.362e-02 V.
	Boltzmann factor, exp(-psi_DL * F / RT) = 1.241e-01 (= c_DL / c_free if z is +1).

	Element       	     Moles
	Cl            	  3.3663e-05
	H             	  4.0303e-09
	Na            	  5.1805e-07
	O             	  3.9777e-09

Hfo_w         
	  1.000e-03  moles
	                                   Mole                     Log
	Species               Moles    Fraction    Molality    Molality

	Hfo_wOH           7.658e-04       0.766   2.042e-02      -1.690
	Hfo_wOH2+         1.337e-04       0.134   3.563e-03      -2.448
	Hfo_wO-           1.005e-04       0.101   2.680e-03      -2.572

Su            
	 -4.013e-10  Surface + diffuse layer charge, eq
	 -1.000e-01  Surface charge, eq
	 -9.649e-01  sigma, C/m²
	 -3.250e-01  psi, V
	  1.265e+01  -F*psi/RT
	  3.113e+05  exp(-F*psi/RT)
	  1.000e+04  specific area, m²/g
	  1.000e+04  m² for   1.000e+00 g

	Water in diffuse layer: 8.009e-02 kg, 94.3% of total DDL-water.
	Radius of total pore:   2.310e-08 m; of free pore: 1.279e-08 m.

	Total moles in diffuse layer (excluding water), Donnan calculation.
	Donnan Layer potential, psi_DL = -1.868e-01 V.
	Boltzmann factor, exp(-psi_DL * F / RT) = 1.437e+03 (= c_DL / c_free if z is +1).

	Element       	     Moles
	Cl            	  4.8449e-08
	H             	  1.2137e-05
	Na            	  9.9988e-02
	O             	  1.7715e-10

Su            
	  1.000e-01  moles
	                                   Mole                     Log
	Species               Moles    Fraction    Molality    Molality

	Su-               1.000e-01       1.000   2.666e+00       0.426

-----------------------------Solution composition------------------------------

	Elements           Molality       Moles

	Cl                8.691e-04   3.260e-05
	Na                8.691e-04   3.260e-05

----------------------------Description of solution----------------------------

                                       pH  =   6.991      Charge balance
                                       pe  =  12.287      Adjusted to redox equilibrium
      Specific Conductance (µS/cm,  25°C)  = 107
                          Density (g/cm³)  =   0.99708
                               Volume (L)  =   0.03762
                        Activity of water  =   1.000
                 Ionic strength (mol/kgw)  =   8.692e-04
                       Mass of water (kg)  =   3.751e-02
                 Total alkalinity (eq/kg)  =  -3.068e-09
                         Temperature (°C)  =  25.00
                  Electrical balance (eq)  =   9.413e-11
 Percent error, 100*(Cat-|An|)/(Cat+|An|)  =   0.00
                               Iterations  =   0 (10 overall)
                                  Total H  = 4.164308e+00
                                  Total O  = 2.082154e+00

----------------------------Distribution of species----------------------------

                                               Log       Log       Log    mole V
   Species          Molality    Activity  Molality  Activity     Gamma   cm³/mol

   H+              1.055e-07   1.022e-07    -6.977    -6.991    -0.014      0.00
   OH-             1.024e-07   9.905e-08    -6.990    -7.004    -0.015     -4.11
   H2O             1.811e+02   1.000e+00     2.258    -0.000     0.000     18.07
Cl            8.691e-04
   Cl-             8.691e-04   8.405e-04    -3.061    -3.075    -0.015     18.07
H(0)          0.000e+00
   H2              0.000e+00   0.000e+00   -41.705   -41.705     0.000     28.61
Na            8.691e-04
   Na+             8.691e-04   8.407e-04    -3.061    -3.075    -0.014     -1.48
   NaOH            8.326e-21   8.327e-21   -20.080   -20.079     0.000     (0)  
O(0)          2.141e-09
   O2              1.070e-09   1.071e-09    -8.970    -8.970     0.000     30.40

------------------------------Saturation indices-------------------------------

  Phase               SI** log IAP   log K(298 K,   1 atm)

  H2(g)           -38.60    -41.70   -3.10  H2
  H2O(g)           -1.50     -0.00    1.50  H2O
  Halite           -7.72     -6.15    1.57  NaCl
  O2(g)            -6.08     -8.97   -2.89  O2

**For a gas, SI = log10(fugacity). Fugacity = pressure * phi / 1 atm.
  For ideal gases, phi = 1.

------------------
End of simulation.
------------------

------------------------------------
Reading input data for simulation 7.
------------------------------------

	USE surface 1
	 USE mix 1
	SAVE solution 1
	 SAVE surface 1
	END
-----------------------------------------
Beginning of batch-reaction calculations.
-----------------------------------------

Reaction step 1.

Using mix 1.	
Using surface 1.	

Mixture 1.	

	  5.000e-01 Solution 1	Solution after simulation 6.                           

------------------------------Surface composition------------------------------

Diffuse Double Layer Surface-Complexation Model

Hfo           
	 -4.953e-14  Surface + diffuse layer charge, eq
	  3.221e-05  Surface charge, eq
	  5.180e-03  sigma, C/m²
	  6.282e-02  psi, V
	 -2.445e+00  -F*psi/RT
	  8.672e-02  exp(-F*psi/RT)
	  6.000e+02  specific area, m²/g
	  6.000e+02  m² for   1.000e+00 g

	Water in diffuse layer: 4.657e-03 kg,  5.7% of total DDL-water.
	Radius of total pore:   1.956e-08 m; of free pore: 8.882e-09 m.

	Total moles in diffuse layer (excluding water), Donnan calculation.
	Donnan Layer potential, psi_DL =  5.542e-02 V.
	Boltzmann factor, exp(-psi_DL * F / RT) = 1.157e-01 (= c_DL / c_free if z is +1).

	Element       	     Moles
	Cl            	  3.2642e-05
	H             	  4.1517e-09
	Na            	  4.3662e-07
	O             	  4.0956e-09

Hfo_w         
	  1.000e-03  moles
	                                   Mole                     Log
	Species               Moles    Fraction    Molality    Molality

	Hfo_wOH           7.659e-04       0.766   3.583e-02      -1.446
	Hfo_wOH2+         1.331e-04       0.133   6.228e-03      -2.206
	Hfo_wO-           1.009e-04       0.101   4.721e-03      -2.326

Su            
	  1.538e-10  Surface + diffuse layer charge, eq
	 -1.000e-01  Surface charge, eq
	 -9.649e-01  sigma, C/m²
	 -3.267e-01  psi, V
	  1.272e+01  -F*psi/RT
	  3.337e+05  exp(-F*psi/RT)
	  1.000e+04  specific area, m²/g
	  1.000e+04  m² for   1.000e+00 g

	Water in diffuse layer: 7.761e-02 kg, 94.3% of total DDL-water.
	Radius of total pore:   1.956e-08 m; of free pore: 8.882e-09 m.

	Total moles in diffuse layer (excluding water), Donnan calculation.
	Donnan Layer potential, psi_DL = -1.894e-01 V.
	Boltzmann factor, exp(-psi_DL * F / RT) = 1.589e+03 (= c_DL / c_free if z is +1).

	Element       	     Moles
	Cl            	  3.9594e-08
	H             	  1.3077e-05
	Na            	  9.9987e-02
	O             	  2.0917e-11

Su            
	  1.000e-01  moles
	                                   Mole                     Log
	Species               Moles    Fraction    Molality    Molality

	Su-               1.000e-01       1.000   4.678e+00       0.670

-----------------------------Solution composition------------------------------

	Elements           Molality       Moles

	Cl                8.107e-04   1.733e-05
	Na                8.107e-04   1.733e-05

----------------------------Description of solution----------------------------

                                       pH  =   6.988      Charge balance
                                       pe  =  12.035      Adjusted to redox equilibrium
      Specific Conductance (µS/cm,  25°C)  = 100
                          Density (g/cm³)  =   0.99708
                               Volume (L)  =   0.02144
                        Activity of water  =   1.000
                 Ionic strength (mol/kgw)  =   8.108e-04
                       Mass of water (kg)  =   2.138e-02
                 Total alkalinity (eq/kg)  =  -4.330e-09
                         Temperature (°C)  =  25.00
                  Electrical balance (eq)  =  -3.541e-10
 Percent error, 100*(Cat-|An|)/(Cat+|An|)  =  -0.00
                               Iterations  =   0 (13 overall)
                                  Total H  = 2.373227e+00
                                  Total O  = 1.186614e+00

----------------------------Distribution of species----------------------------

                                               Log       Log       Log    mole V
   Species          Molality    Activity  Molality  Activity     Gamma   cm³/mol

   H+              1.060e-07   1.028e-07    -6.975    -6.988    -0.013      0.00
   OH-             1.017e-07   9.845e-08    -6.993    -7.007    -0.014     -4.11
   H2O             2.691e+02   1.000e+00     2.430    -0.000     0.000     18.07
Cl            8.107e-04
   Cl-             8.107e-04   7.849e-04    -3.091    -3.105    -0.014     18.07
H(0)          0.000e+00
   H2              0.000e+00   0.000e+00   -41.196   -41.196     0.000     28.61
Na            8.107e-04
   Na+             8.107e-04   7.851e-04    -3.091    -3.105    -0.014     -1.48
   NaOH            7.728e-21   7.729e-21   -20.112   -20.112     0.000     (0)  
O(0)          2.055e-10
   O2              1.028e-10   1.028e-10    -9.988    -9.988     0.000     30.40

------------------------------Saturation indices-------------------------------

  Phase               SI** log IAP   log K(298 K,   1 atm)

  H2(g)           -38.09    -41.20   -3.10  H2
  H2O(g)           -1.50     -0.00    1.50  H2O
  Halite           -7.78     -6.21    1.57  NaCl
  O2(g)            -7.10     -9.99   -2.89  O2

**For a gas, SI = log10(fugacity). Fugacity = pressure * phi / 1 atm.
  For ideal gases, phi = 1.

------------------
End of simulation.
------------------

------------------------------------
Reading input data for simulation 8.
------------------------------------

	USE surface 1
	 USE mix 1
	SAVE solution 1
	 SAVE surface 1
	END
-----------------------------------------
Beginning of batch-reaction calculations.
-----------------------------------------

Reaction step 1.

Using mix 1.	
Using surface 1.	

Mixture 1.	

	  5.000e-01 Solution 1	Solution after simulation 7.                           

------------------------------Surface composition------------------------------

Diffuse Double Layer Surface-Complexation Model

Hfo           
	 -1.668e-13  Surface + diffuse layer charge, eq
	  2.902e-05  Surface charge, eq
	  4.667e-03  sigma, C/m²
	  6.313e-02  psi, V
	 -2.457e+00  -F*psi/RT
	  8.568e-02  exp(-F*psi/RT)
	  6.000e+02  specific area, m²/g
	  6.000e+02  m² for   1.000e+00 g

	Water in diffuse layer: 4.210e-03 kg,  5.7% of total DDL-water.
	Radius of total pore:   1.754e-08 m; of free pore: 7.844e-09 m.

	Total moles in diffuse layer (excluding water), Donnan calculation.
	Donnan Layer potential, psi_DL =  6.094e-02 V.
	Boltzmann factor, exp(-psi_DL * F / RT) = 9.328e-02 (= c_DL / c_free if z is +1).

	Element       	     Moles
	Cl            	  2.9268e-05
	H             	  4.6227e-09
	Na            	  2.5467e-07
	O             	  4.5857e-09

Hfo_w         
	  1.000e-03  moles
	                                   Mole                     Log
	Species               Moles    Fraction    Molality    Molality

	Hfo_wOH           7.662e-04       0.766   4.121e-02      -1.385
	Hfo_wOH2+         1.314e-04       0.131   7.067e-03      -2.151
	Hfo_wO-           1.024e-04       0.102   5.506e-03      -2.259

Su            
	  5.794e-10  Surface + diffuse layer charge, eq
	 -1.000e-01  Surface charge, eq
	 -9.649e-01  sigma, C/m²
	 -3.325e-01  psi, V
	  1.294e+01  -F*psi/RT
	  4.172e+05  exp(-F*psi/RT)
	  1.000e+04  specific area, m²/g
	  1.000e+04  m² for   1.000e+00 g

	Water in diffuse layer: 7.016e-02 kg, 94.3% of total DDL-water.
	Radius of total pore:   1.754e-08 m; of free pore: 7.844e-09 m.

	Total moles in diffuse layer (excluding water), Donnan calculation.
	Donnan Layer potential, psi_DL = -1.977e-01 V.
	Boltzmann factor, exp(-psi_DL * F / RT) = 2.197e+03 (= c_DL / c_free if z is +1).

	Element       	     Moles
	Cl            	  2.0708e-08
	H             	  1.6269e-05
	Na            	  9.9984e-02
	O             	  7.7138e-11

Su            
	  1.000e-01  moles
	                                   Mole                     Log
	Species               Moles    Fraction    Molality    Molality

	Su-               1.000e-01       1.000   5.379e+00       0.731

-----------------------------Solution composition------------------------------

	Elements           Molality       Moles

	Cl                6.486e-04   1.206e-05
	Na                6.486e-04   1.206e-05

----------------------------Description of solution----------------------------

                                       pH  =   6.989      Charge balance
                                       pe  =  12.212      Adjusted to redox equilibrium
      Specific Conductance (µS/cm,  25°C)  = 80
                          Density (g/cm³)  =   0.99707
                               Volume (L)  =   0.01865
                        Activity of water  =   1.000
                 Ionic strength (mol/kgw)  =   6.487e-04
                       Mass of water (kg)  =   1.859e-02
                 Total alkalinity (eq/kg)  =  -4.013e-09
                         Temperature (°C)  =  25.00
                  Electrical balance (eq)  =  -2.334e-11
 Percent error, 100*(Cat-|An|)/(Cat+|An|)  =  -0.00
                               Iterations  =   0 (5 overall)
                                  Total H  = 2.063951e+00
                                  Total O  = 1.031976e+00

----------------------------Distribution of species----------------------------

                                               Log       Log       Log    mole V
   Species          Molality    Activity  Molality  Activity     Gamma   cm³/mol

   H+              1.055e-07   1.026e-07    -6.977    -6.989    -0.012      0.00
   OH-             1.015e-07   9.861e-08    -6.993    -7.006    -0.013     -4.11
   H2O             2.775e+02   1.000e+00     2.443    -0.000     0.000     18.07
Cl            6.486e-04
   Cl-             6.486e-04   6.300e-04    -3.188    -3.201    -0.013     18.07
H(0)          0.000e+00
   H2              0.000e+00   0.000e+00   -41.551   -41.551     0.000     28.61
Na            6.486e-04
   Na+             6.486e-04   6.301e-04    -3.188    -3.201    -0.013     -1.49
   NaOH            6.213e-21   6.214e-21   -20.207   -20.207     0.000     (0)  
O(0)          1.053e-09
   O2              5.266e-10   5.267e-10    -9.278    -9.278     0.000     30.40

------------------------------Saturation indices-------------------------------

  Phase               SI** log IAP   log K(298 K,   1 atm)

  H2(g)           -38.45    -41.55   -3.10  H2
  H2O(g)           -1.50     -0.00    1.50  H2O
  Halite           -7.97     -6.40    1.57  NaCl
  O2(g)            -6.39     -9.28   -2.89  O2

**For a gas, SI = log10(fugacity). Fugacity = pressure * phi / 1 atm.
  For ideal gases, phi = 1.

------------------
End of simulation.
------------------

------------------------------------
Reading input data for simulation 9.
------------------------------------

	USE surface 1
	 USE mix 1
	SAVE solution 1
	 SAVE surface 1
	END
-----------------------------------------
Beginning of batch-reaction calculations.
-----------------------------------------

Reaction step 1.

Using mix 1.	
Using surface 1.	

Mixture 1.	

	  5.000e-01 Solution 1	Solution after simulation 8.                           

------------------------------Surface composition------------------------------

Diffuse Double Layer Surface-Complexation Model

Hfo           
	 -4.859e-14  Surface + diffuse layer charge, eq
	  2.618e-05  Surface charge, eq
	  4.210e-03  sigma, C/m²
	  6.277e-02  psi, V
	 -2.443e+00  -F*psi/RT
	  8.688e-02  exp(-F*psi/RT)
	  6.000e+02  specific area, m²/g
	  6.000e+02  m² for   1.000e+00 g

	Water in diffuse layer: 3.789e-03 kg,  5.7% of total DDL-water.
	Radius of total pore:   1.579e-08 m; of free pore: 7.060e-09 m.

	Total moles in diffuse layer (excluding water), Donnan calculation.
	Donnan Layer potential, psi_DL =  6.580e-02 V.
	Boltzmann factor, exp(-psi_DL * F / RT) = 7.721e-02 (= c_DL / c_free if z is +1).

	Element       	     Moles
	Cl            	  2.6328e-05
	H             	  5.1304e-09
	Na            	  1.5695e-07
	O             	  5.1175e-09

Hfo_w         
	  1.000e-03  moles
	                                   Mole                     Log
	Species               Moles    Fraction    Molality    Molality

	Hfo_wOH           7.665e-04       0.766   4.581e-02      -1.339
	Hfo_wOH2+         1.298e-04       0.130   7.759e-03      -2.110
	Hfo_wO-           1.037e-04       0.104   6.195e-03      -2.208

Su            
	  1.856e-10  Surface + diffuse layer charge, eq
	 -1.000e-01  Surface charge, eq
	 -9.649e-01  sigma, C/m²
	 -3.373e-01  psi, V
	  1.313e+01  -F*psi/RT
	  5.042e+05  exp(-F*psi/RT)
	  1.000e+04  specific area, m²/g
	  1.000e+04  m² for   1.000e+00 g

	Water in diffuse layer: 6.314e-02 kg, 94.3% of total DDL-water.
	Radius of total pore:   1.579e-08 m; of free pore: 7.060e-09 m.

	Total moles in diffuse layer (excluding water), Donnan calculation.
	Donnan Layer potential, psi_DL = -2.053e-01 V.
	Boltzmann factor, exp(-psi_DL * F / RT) = 2.951e+03 (= c_DL / c_free if z is +1).

	Element       	     Moles
	Cl            	  1.1481e-08
	H             	  1.9112e-05
	Na            	  9.9981e-02
	O             	  2.8776e-10

Su            
	  1.000e-01  moles
	                                   Mole                     Log
	Species               Moles    Fraction    Molality    Molality

	Su-               1.000e-01       1.000   5.976e+00       0.776

-----------------------------Solution composition------------------------------

	Elements           Molality       Moles

	Cl                5.365e-04   8.978e-06
	Na                5.366e-04   8.979e-06

----------------------------Description of solution----------------------------

                                       pH  =   7.000      Charge balance
                                       pe  =  12.359      Adjusted to redox equilibrium
      Specific Conductance (µS/cm,  25°C)  = 66
                          Density (g/cm³)  =   0.99707
                               Volume (L)  =   0.01678
                        Activity of water  =   1.000
                 Ionic strength (mol/kgw)  =   5.367e-04
                       Mass of water (kg)  =   1.673e-02
                 Total alkalinity (eq/kg)  =   1.372e-09
                         Temperature (°C)  =  25.00
                  Electrical balance (eq)  =   5.675e-10
 Percent error, 100*(Cat-|An|)/(Cat+|An|)  =   0.00
                               Iterations  =   0 (5 overall)
                                  Total H  = 1.857556e+00
                                  Total O  = 9.287780e-01

----------------------------Distribution of species----------------------------

                                               Log       Log       Log    mole V
   Species          Molality    Activity  Molality  Activity     Gamma   cm³/mol

   OH-             1.039e-07   1.012e-07    -6.983    -6.995    -0.012     -4.12
   H+              1.026e-07   9.999e-08    -6.989    -7.000    -0.011      0.00
   H2O             2.775e+02   1.000e+00     2.443    -0.000     0.000     18.07
Cl            5.365e-04
   Cl-             5.365e-04   5.225e-04    -3.270    -3.282    -0.011     18.07
H(0)          0.000e+00
   H2              0.000e+00   0.000e+00   -41.867   -41.867     0.000     28.61
Na            5.366e-04
   Na+             5.366e-04   5.227e-04    -3.270    -3.282    -0.011     -1.49
   NaOH            5.290e-21   5.291e-21   -20.277   -20.276     0.000     (0)  
O(0)          4.522e-09
   O2              2.261e-09   2.261e-09    -8.646    -8.646     0.000     30.40

------------------------------Saturation indices-------------------------------

  Phase               SI** log IAP   log K(298 K,   1 atm)

  H2(g)           -38.77    -41.87   -3.10  H2
  H2O(g)           -1.50     -0.00    1.50  H2O
  Halite           -8.13     -6.56    1.57  NaCl
  O2(g)            -5.75     -8.65   -2.89  O2

**For a gas, SI = log10(fugacity). Fugacity = pressure * phi / 1 atm.
  For ideal gases, phi = 1.

------------------
End of simulation.
------------------

-------------------------------------
Reading input data for simulation 10.
-------------------------------------

	USE surface 1
	 USE mix 1
	SAVE solution 1
	 SAVE surface 1
	END
-----------------------------------------
Beginning of batch-reaction calculations.
-----------------------------------------

Reaction step 1.

Using mix 1.	
Using surface 1.	

Mixture 1.	

	  5.000e-01 Solution 1	Solution after simulation 9.                           

------------------------------Surface composition------------------------------

Diffuse Double Layer Surface-Complexation Model

Hfo           
	  8.463e-15  Surface + diffuse layer charge, eq
	  2.381e-05  Surface charge, eq
	  3.830e-03  sigma, C/m²
	  6.206e-02  psi, V
	 -2.416e+00  -F*psi/RT
	  8.932e-02  exp(-F*psi/RT)
	  6.000e+02  specific area, m²/g
	  6.000e+02  m² for   1.000e+00 g

	Water in diffuse layer: 3.410e-03 kg,  5.7% of total DDL-water.
	Radius of total pore:   1.421e-08 m; of free pore: 6.354e-09 m.

	Total moles in diffuse layer (excluding water), Donnan calculation.
	Donnan Layer potential, psi_DL =  7.005e-02 V.
	Boltzmann factor, exp(-psi_DL * F / RT) = 6.545e-02 (= c_DL / c_free if z is +1).

	Element       	     Moles
	Cl            	  2.3910e-05
	H             	  5.6350e-09
	Na            	  1.0242e-07
	O             	  5.6327e-09

Hfo_w         
	  1.000e-03  moles
	                                   Mole                     Log
	Species               Moles    Fraction    Molality    Molality

	Hfo_wOH           7.667e-04       0.767   5.091e-02      -1.293
	Hfo_wOH2+         1.286e-04       0.129   8.537e-03      -2.069
	Hfo_wO-           1.047e-04       0.105   6.955e-03      -2.158

Su            
	 -3.554e-11  Surface + diffuse layer charge, eq
	 -1.000e-01  Surface charge, eq
	 -9.649e-01  sigma, C/m²
	 -3.414e-01  psi, V
	  1.329e+01  -F*psi/RT
	  5.895e+05  exp(-F*psi/RT)
	  1.000e+04  specific area, m²/g
	  1.000e+04  m² for   1.000e+00 g

	Water in diffuse layer: 5.683e-02 kg, 94.3% of total DDL-water.
	Radius of total pore:   1.421e-08 m; of free pore: 6.354e-09 m.

	Total moles in diffuse layer (excluding water), Donnan calculation.
	Donnan Layer potential, psi_DL = -2.120e-01 V.
	Boltzmann factor, exp(-psi_DL * F / RT) = 3.833e+03 (= c_DL / c_free if z is +1).

	Element       	     Moles
	Cl            	  6.8041e-09
	H             	  2.1475e-05
	Na            	  9.9979e-02
	O             	  3.2859e-10

Su            
	  1.000e-01  moles
	                                   Mole                     Log
	Species               Moles    Fraction    Molality    Molality

	Su-               1.000e-01       1.000   6.640e+00       0.822

-----------------------------Solution composition------------------------------

	Elements           Molality       Moles

	Cl                4.589e-04   6.911e-06
	Na                4.590e-04   6.912e-06

----------------------------Description of solution----------------------------

                                       pH  =   7.016      Charge balance
                                       pe  =  12.368      Adjusted to redox equilibrium
      Specific Conductance (µS/cm,  25°C)  = 57
                          Density (g/cm³)  =   0.99706
                               Volume (L)  =   0.01510
                        Activity of water  =   1.000
                 Ionic strength (mol/kgw)  =   4.591e-04
                       Mass of water (kg)  =   1.506e-02
                 Total alkalinity (eq/kg)  =   9.150e-09
                         Temperature (°C)  =  25.00
                  Electrical balance (eq)  =   4.693e-10
 Percent error, 100*(Cat-|An|)/(Cat+|An|)  =   0.00
                               Iterations  =   0 (5 overall)
                                  Total H  = 1.671800e+00
                                  Total O  = 8.359002e-01

----------------------------Distribution of species----------------------------

                                               Log       Log       Log    mole V
   Species          Molality    Activity  Molality  Activity     Gamma   cm³/mol

   OH-             1.077e-07   1.051e-07    -6.968    -6.978    -0.011     -4.12
   H+              9.859e-08   9.628e-08    -7.006    -7.016    -0.010      0.00
   H2O             2.775e+02   1.000e+00     2.443    -0.000     0.000     18.07
Cl            4.589e-04
   Cl-             4.589e-04   4.478e-04    -3.338    -3.349    -0.011     18.06
H(0)          0.000e+00
   H2              0.000e+00   0.000e+00   -41.920   -41.920     0.000     28.61
Na            4.590e-04
   Na+             4.590e-04   4.479e-04    -3.338    -3.349    -0.011     -1.49
   NaOH            4.708e-21   4.709e-21   -20.327   -20.327     0.000     (0)  
O(0)          5.754e-09
   O2              2.877e-09   2.877e-09    -8.541    -8.541     0.000     30.40

------------------------------Saturation indices-------------------------------

  Phase               SI** log IAP   log K(298 K,   1 atm)

  H2(g)           -38.82    -41.92   -3.10  H2
  H2O(g)           -1.50     -0.00    1.50  H2O
  Halite           -8.27     -6.70    1.57  NaCl
  O2(g)            -5.65     -8.54   -2.89  O2

**For a gas, SI = log10(fugacity). Fugacity = pressure * phi / 1 atm.
  For ideal gases, phi = 1.

------------------
End of simulation.
------------------

-------------------------------------
Reading input data for simulation 11.
-------------------------------------

	USE surface 1
	 USE mix 1
	SAVE solution 1
	 SAVE surface 1
	END
-----------------------------------------
Beginning of batch-reaction calculations.
-----------------------------------------

Reaction step 1.

Using mix 1.	
Using surface 1.	

Mixture 1.	

	  5.000e-01 Solution 1	Solution after simulation 10.                          

------------------------------Surface composition------------------------------

Diffuse Double Layer Surface-Complexation Model

Hfo           
	  3.105e-15  Surface + diffuse layer charge, eq
	  2.185e-05  Surface charge, eq
	  3.514e-03  sigma, C/m²
	  6.119e-02  psi, V
	 -2.382e+00  -F*psi/RT
	  9.240e-02  exp(-F*psi/RT)
	  6.000e+02  specific area, m²/g
	  6.000e+02  m² for   1.000e+00 g

	Water in diffuse layer: 3.069e-03 kg,  5.7% of total DDL-water.
	Radius of total pore:   1.279e-08 m; of free pore: 5.718e-09 m.

	Total moles in diffuse layer (excluding water), Donnan calculation.
	Donnan Layer potential, psi_DL =  7.389e-02 V.
	Boltzmann factor, exp(-psi_DL * F / RT) = 5.636e-02 (= c_DL / c_free if z is +1).

	Element       	     Moles
	Cl            	  2.1914e-05
	H             	  6.1275e-09
	Na            	  6.9608e-08
	O             	  6.1281e-09

Hfo_w         
	  1.000e-03  moles
	                                   Mole                     Log
	Species               Moles    Fraction    Molality    Molality

	Hfo_wOH           7.668e-04       0.767   5.658e-02      -1.247
	Hfo_wOH2+         1.275e-04       0.128   9.407e-03      -2.027
	Hfo_wO-           1.057e-04       0.106   7.795e-03      -2.108

Su            
	 -1.421e-11  Surface + diffuse layer charge, eq
	 -1.000e-01  Surface charge, eq
	 -9.649e-01  sigma, C/m²
	 -3.447e-01  psi, V
	  1.342e+01  -F*psi/RT
	  6.722e+05  exp(-F*psi/RT)
	  1.000e+04  specific area, m²/g
	  1.000e+04  m² for   1.000e+00 g

	Water in diffuse layer: 5.115e-02 kg, 94.3% of total DDL-water.
	Radius of total pore:   1.279e-08 m; of free pore: 5.718e-09 m.

	Total moles in diffuse layer (excluding water), Donnan calculation.
	Donnan Layer potential, psi_DL = -2.181e-01 V.
	Boltzmann factor, exp(-psi_DL * F / RT) = 4.857e+03 (= c_DL / c_free if z is +1).

	Element       	     Moles
	Cl            	  4.2382e-09
	H             	  2.3439e-05
	Na            	  9.9977e-02
	O             	  2.8207e-10

Su            
	  1.000e-01  moles
	                                   Mole                     Log
	Species               Moles    Fraction    Molality    Molality

	Su-               1.000e-01       1.000   7.378e+00       0.868

-----------------------------Solution composition------------------------------

	Elements           Molality       Moles

	Cl                4.025e-04   5.455e-06
	Na                4.025e-04   5.455e-06

----------------------------Description of solution----------------------------

                                       pH  =   7.035      Charge balance
                                       pe  =  12.345      Adjusted to redox equilibrium
      Specific Conductance (µS/cm,  25°C)  = 50
                          Density (g/cm³)  =   0.99706
                               Volume (L)  =   0.01359
                        Activity of water  =   1.000
                 Ionic strength (mol/kgw)  =   4.026e-04
                       Mass of water (kg)  =   1.355e-02
                 Total alkalinity (eq/kg)  =   1.787e-08
                         Temperature (°C)  =  25.00
                  Electrical balance (eq)  =   1.991e-10
 Percent error, 100*(Cat-|An|)/(Cat+|An|)  =   0.00
                               Iterations  =   0 (5 overall)
                                  Total H  = 1.504620e+00
                                  Total O  = 7.523102e-01

----------------------------Distribution of species----------------------------

                                               Log       Log       Log    mole V
   Species          Molality    Activity  Molality  Activity     Gamma   cm³/mol

   OH-             1.122e-07   1.097e-07    -6.950    -6.960    -0.010     -4.12
   H+              9.436e-08   9.228e-08    -7.025    -7.035    -0.010      0.00
   H2O             2.775e+02   1.000e+00     2.443    -0.000     0.000     18.07
Cl            4.025e-04
   Cl-             4.025e-04   3.933e-04    -3.395    -3.405    -0.010     18.06
H(0)          0.000e+00
   H2              0.000e+00   0.000e+00   -41.909   -41.909     0.000     28.61
Na            4.025e-04
   Na+             4.025e-04   3.934e-04    -3.395    -3.405    -0.010     -1.49
   NaOH            4.314e-21   4.315e-21   -20.365   -20.365     0.000     (0)  
O(0)          5.492e-09
   O2              2.746e-09   2.746e-09    -8.561    -8.561     0.000     30.40

------------------------------Saturation indices-------------------------------

  Phase               SI** log IAP   log K(298 K,   1 atm)

  H2(g)           -38.81    -41.91   -3.10  H2
  H2O(g)           -1.50     -0.00    1.50  H2O
  Halite           -8.38     -6.81    1.57  NaCl
  O2(g)            -5.67     -8.56   -2.89  O2

**For a gas, SI = log10(fugacity). Fugacity = pressure * phi / 1 atm.
  For ideal gases, phi = 1.

------------------
End of simulation.
------------------

-------------------------------------
Reading input data for simulation 12.
-------------------------------------

	USE surface 1
	 USE mix 1
	SAVE solution 1
	 SAVE surface 1
	END
-----------------------------------------
Beginning of batch-reaction calculations.
-----------------------------------------

Reaction step 1.

Using mix 1.	
Using surface 1.	

Mixture 1.	

	  5.000e-01 Solution 1	Solution after simulation 11.                          

------------------------------Surface composition------------------------------

Diffuse Double Layer Surface-Complexation Model

Hfo           
	  1.193e-15  Surface + diffuse layer charge, eq
	  2.021e-05  Surface charge, eq
	  3.251e-03  sigma, C/m²
	  6.025e-02  psi, V
	 -2.345e+00  -F*psi/RT
	  9.582e-02  exp(-F*psi/RT)
	  6.000e+02  specific area, m²/g
	  6.000e+02  m² for   1.000e+00 g

	Water in diffuse layer: 2.762e-03 kg,  5.7% of total DDL-water.
	Radius of total pore:   1.151e-08 m; of free pore: 5.146e-09 m.

	Total moles in diffuse layer (excluding water), Donnan calculation.
	Donnan Layer potential, psi_DL =  7.745e-02 V.
	Boltzmann factor, exp(-psi_DL * F / RT) = 4.906e-02 (= c_DL / c_free if z is +1).

	Element       	     Moles
	Cl            	  2.0254e-05
	H             	  6.6023e-09
	Na            	  4.8752e-08
	O             	  6.6049e-09

Hfo_w         
	  1.000e-03  moles
	                                   Mole                     Log
	Species               Moles    Fraction    Molality    Molality

	Hfo_wOH           7.670e-04       0.767   6.287e-02      -1.202
	Hfo_wOH2+         1.266e-04       0.127   1.038e-02      -1.984
	Hfo_wO-           1.064e-04       0.106   8.724e-03      -2.059

Su            
	 -5.905e-12  Surface + diffuse layer charge, eq
	 -1.000e-01  Surface charge, eq
	 -9.649e-01  sigma, C/m²
	 -3.476e-01  psi, V
	  1.353e+01  -F*psi/RT
	  7.519e+05  exp(-F*psi/RT)
	  1.000e+04  specific area, m²/g
	  1.000e+04  m² for   1.000e+00 g

	Water in diffuse layer: 4.603e-02 kg, 94.3% of total DDL-water.
	Radius of total pore:   1.151e-08 m; of free pore: 5.146e-09 m.

	Total moles in diffuse layer (excluding water), Donnan calculation.
	Donnan Layer potential, psi_DL = -2.237e-01 V.
	Boltzmann factor, exp(-psi_DL * F / RT) = 6.036e+03 (= c_DL / c_free if z is +1).

	Element       	     Moles
	Cl            	  2.7435e-09
	H             	  2.5078e-05
	Na            	  9.9975e-02
	O             	  2.4833e-10

Su            
	  1.000e-01  moles
	                                   Mole                     Log
	Species               Moles    Fraction    Molality    Molality

	Su-               1.000e-01       1.000   8.198e+00       0.914

-----------------------------Solution composition------------------------------

	Elements           Molality       Moles

	Cl                3.598e-04   4.389e-06
	Na                3.598e-04   4.389e-06

----------------------------Description of solution----------------------------

                                       pH  =   7.054      Charge balance
                                       pe  =  12.324      Adjusted to redox equilibrium
      Specific Conductance (µS/cm,  25°C)  = 44
                          Density (g/cm³)  =   0.99706
                               Volume (L)  =   0.01223
                        Activity of water  =   1.000
                 Ionic strength (mol/kgw)  =   3.599e-04
                       Mass of water (kg)  =   1.220e-02
                 Total alkalinity (eq/kg)  =   2.680e-08
                         Temperature (°C)  =  25.00
                  Electrical balance (eq)  =   8.535e-11
 Percent error, 100*(Cat-|An|)/(Cat+|An|)  =   0.00
                               Iterations  =   0 (5 overall)
                                  Total H  = 1.354158e+00
                                  Total O  = 6.770791e-01

----------------------------Distribution of species----------------------------

                                               Log       Log       Log    mole V
   Species          Molality    Activity  Molality  Activity     Gamma   cm³/mol

   OH-             1.171e-07   1.145e-07    -6.932    -6.941    -0.009     -4.12
   H+              9.025e-08   8.837e-08    -7.045    -7.054    -0.009      0.00
   H2O             2.775e+02   1.000e+00     2.443    -0.000     0.000     18.07
Cl            3.598e-04
   Cl-             3.598e-04   3.520e-04    -3.444    -3.453    -0.009     18.06
H(0)          0.000e+00
   H2              0.000e+00   0.000e+00   -41.905   -41.905     0.000     28.61
Na            3.598e-04
   Na+             3.598e-04   3.521e-04    -3.444    -3.453    -0.009     -1.50
   NaOH            4.032e-21   4.033e-21   -20.394   -20.394     0.000     (0)  
O(0)          5.375e-09
   O2              2.688e-09   2.688e-09    -8.571    -8.571     0.000     30.40

------------------------------Saturation indices-------------------------------

  Phase               SI** log IAP   log K(298 K,   1 atm)

  H2(g)           -38.80    -41.90   -3.10  H2
  H2O(g)           -1.50     -0.00    1.50  H2O
  Halite           -8.48     -6.91    1.57  NaCl
  O2(g)            -5.68     -8.57   -2.89  O2

**For a gas, SI = log10(fugacity). Fugacity = pressure * phi / 1 atm.
  For ideal gases, phi = 1.

------------------
End of simulation.
------------------

-------------------------------------
Reading input data for simulation 13.
-------------------------------------

	USE surface 1
	 USE mix 1
	SAVE solution 1
	 SAVE surface 1
	END
-----------------------------------------
Beginning of batch-reaction calculations.
-----------------------------------------

Reaction step 1.

Using mix 1.	
Using surface 1.	

Mixture 1.	

	  5.000e-01 Solution 1	Solution after simulation 12.                          

------------------------------Surface composition------------------------------

Diffuse Double Layer Surface-Complexation Model

Hfo           
	  4.980e-16  Surface + diffuse layer charge, eq
	  1.884e-05  Surface charge, eq
	  3.029e-03  sigma, C/m²
	  5.932e-02  psi, V
	 -2.309e+00  -F*psi/RT
	  9.937e-02  exp(-F*psi/RT)
	  6.000e+02  specific area, m²/g
	  6.000e+02  m² for   1.000e+00 g

	Water in diffuse layer: 2.486e-03 kg,  5.7% of total DDL-water.
	Radius of total pore:   1.036e-08 m; of free pore: 4.632e-09 m.

	Total moles in diffuse layer (excluding water), Donnan calculation.
	Donnan Layer potential, psi_DL =  8.082e-02 V.
	Boltzmann factor, exp(-psi_DL * F / RT) = 4.303e-02 (= c_DL / c_free if z is +1).

	Element       	     Moles
	Cl            	  1.8864e-05
	H             	  7.0558e-09
	Na            	  3.4940e-08
	O             	  7.0598e-09

Hfo_w         
	  1.000e-03  moles
	                                   Mole                     Log
	Species               Moles    Fraction    Molality    Molality

	Hfo_wOH           7.670e-04       0.767   6.987e-02      -1.156
	Hfo_wOH2+         1.259e-04       0.126   1.147e-02      -1.941
	Hfo_wO-           1.071e-04       0.107   9.752e-03      -2.011

Su            
	 -2.643e-12  Surface + diffuse layer charge, eq
	 -1.000e-01  Surface charge, eq
	 -9.649e-01  sigma, C/m²
	 -3.501e-01  psi, V
	  1.363e+01  -F*psi/RT
	  8.282e+05  exp(-F*psi/RT)
	  1.000e+04  specific area, m²/g
	  1.000e+04  m² for   1.000e+00 g

	Water in diffuse layer: 4.143e-02 kg, 94.3% of total DDL-water.
	Radius of total pore:   1.036e-08 m; of free pore: 4.632e-09 m.

	Total moles in diffuse layer (excluding water), Donnan calculation.
	Donnan Layer potential, psi_DL = -2.288e-01 V.
	Boltzmann factor, exp(-psi_DL * F / RT) = 7.388e+03 (= c_DL / c_free if z is +1).

	Element       	     Moles
	Cl            	  1.8313e-09
	H             	  2.6455e-05
	Na            	  9.9974e-02
	O             	  2.2115e-10

Su            
	  1.000e-01  moles
	                                   Mole                     Log
	Species               Moles    Fraction    Molality    Molality

	Su-               1.000e-01       1.000   9.109e+00       0.959

-----------------------------Solution composition------------------------------

	Elements           Molality       Moles

	Cl                3.266e-04   3.585e-06
	Na                3.266e-04   3.586e-06

----------------------------Description of solution----------------------------

                                       pH  =   7.072      Charge balance
                                       pe  =  12.304      Adjusted to redox equilibrium
      Specific Conductance (µS/cm,  25°C)  = 40
                          Density (g/cm³)  =   0.99706
                               Volume (L)  =   0.01101
                        Activity of water  =   1.000
                 Ionic strength (mol/kgw)  =   3.267e-04
                       Mass of water (kg)  =   1.098e-02
                 Total alkalinity (eq/kg)  =   3.557e-08
                         Temperature (°C)  =  25.00
                  Electrical balance (eq)  =   3.677e-11
 Percent error, 100*(Cat-|An|)/(Cat+|An|)  =   0.00
                               Iterations  =   0 (5 overall)
                                  Total H  = 1.218742e+00
                                  Total O  = 6.093712e-01

----------------------------Distribution of species----------------------------

                                               Log       Log       Log    mole V
   Species          Molality    Activity  Molality  Activity     Gamma   cm³/mol

   OH-             1.220e-07   1.195e-07    -6.914    -6.923    -0.009     -4.12
   H+              8.643e-08   8.471e-08    -7.063    -7.072    -0.009      0.00
   H2O             2.775e+02   1.000e+00     2.443    -0.000     0.000     18.07
Cl            3.266e-04
   Cl-             3.266e-04   3.199e-04    -3.486    -3.495    -0.009     18.06
H(0)          0.000e+00
   H2              0.000e+00   0.000e+00   -41.903   -41.903     0.000     28.61
Na            3.266e-04
   Na+             3.266e-04   3.200e-04    -3.486    -3.495    -0.009     -1.50
   NaOH            3.823e-21   3.823e-21   -20.418   -20.418     0.000     (0)  
O(0)          5.322e-09
   O2              2.661e-09   2.661e-09    -8.575    -8.575     0.000     30.40

------------------------------Saturation indices-------------------------------

  Phase               SI** log IAP   log K(298 K,   1 atm)

  H2(g)           -38.80    -41.90   -3.10  H2
  H2O(g)           -1.50     -0.00    1.50  H2O
  Halite           -8.56     -6.99    1.57  NaCl
  O2(g)            -5.68     -8.57   -2.89  O2

**For a gas, SI = log10(fugacity). Fugacity = pressure * phi / 1 atm.
  For ideal gases, phi = 1.

------------------
End of simulation.
------------------

-------------------------------------
Reading input data for simulation 14.
-------------------------------------

	USE surface 1
	 USE mix 1
	SAVE solution 1
	 SAVE surface 1
	END
-----------------------------------------
Beginning of batch-reaction calculations.
-----------------------------------------

Reaction step 1.

Using mix 1.	
Using surface 1.	

Mixture 1.	

	  5.000e-01 Solution 1	Solution after simulation 13.                          

------------------------------Surface composition------------------------------

Diffuse Double Layer Surface-Complexation Model

Hfo           
	  2.195e-16  Surface + diffuse layer charge, eq
	  1.767e-05  Surface charge, eq
	  2.842e-03  sigma, C/m²
	  5.841e-02  psi, V
	 -2.274e+00  -F*psi/RT
	  1.029e-01  exp(-F*psi/RT)
	  6.000e+02  specific area, m²/g
	  6.000e+02  m² for   1.000e+00 g

	Water in diffuse layer: 2.237e-03 kg,  5.7% of total DDL-water.
	Radius of total pore:   9.321e-09 m; of free pore: 4.169e-09 m.

	Total moles in diffuse layer (excluding water), Donnan calculation.
	Donnan Layer potential, psi_DL =  8.404e-02 V.
	Boltzmann factor, exp(-psi_DL * F / RT) = 3.796e-02 (= c_DL / c_free if z is +1).

	Element       	     Moles
	Cl            	  1.7691e-05
	H             	  7.4858e-09
	Na            	  2.5500e-08
	O             	  7.4906e-09

Hfo_w         
	  1.000e-03  moles
	                                   Mole                     Log
	Species               Moles    Fraction    Molality    Molality

	Hfo_wOH           7.671e-04       0.767   7.764e-02      -1.110
	Hfo_wOH2+         1.253e-04       0.125   1.268e-02      -1.897
	Hfo_wO-           1.076e-04       0.108   1.089e-02      -1.963

Su            
	 -1.239e-12  Surface + diffuse layer charge, eq
	 -1.000e-01  Surface charge, eq
	 -9.649e-01  sigma, C/m²
	 -3.523e-01  psi, V
	  1.371e+01  -F*psi/RT
	  9.010e+05  exp(-F*psi/RT)
	  1.000e+04  specific area, m²/g
	  1.000e+04  m² for   1.000e+00 g

	Water in diffuse layer: 3.729e-02 kg, 94.3% of total DDL-water.
	Radius of total pore:   9.321e-09 m; of free pore: 4.169e-09 m.

	Total moles in diffuse layer (excluding water), Donnan calculation.
	Donnan Layer potential, psi_DL = -2.337e-01 V.
	Boltzmann factor, exp(-psi_DL * F / RT) = 8.930e+03 (= c_DL / c_free if z is +1).

	Element       	     Moles
	Cl            	  1.2535e-09
	H             	  2.7618e-05
	Na            	  9.9972e-02
	O             	  1.9795e-10

Su            
	  1.000e-01  moles
	                                   Mole                     Log
	Species               Moles    Fraction    Molality    Molality

	Su-               1.000e-01       1.000   1.012e+01       1.005

-----------------------------Solution composition------------------------------

	Elements           Molality       Moles

	Cl                3.002e-04   2.966e-06
	Na                3.003e-04   2.967e-06

----------------------------Description of solution----------------------------

                                       pH  =   7.090      Charge balance
                                       pe  =  12.286      Adjusted to redox equilibrium
      Specific Conductance (µS/cm,  25°C)  = 37
                          Density (g/cm³)  =   0.99706
                               Volume (L)  =   0.00991
                        Activity of water  =   1.000
                 Ionic strength (mol/kgw)  =   3.003e-04
                       Mass of water (kg)  =   9.881e-03
                 Total alkalinity (eq/kg)  =   4.396e-08
                         Temperature (°C)  =  25.00
                  Electrical balance (eq)  =   1.574e-11
 Percent error, 100*(Cat-|An|)/(Cat+|An|)  =   0.00
                               Iterations  =   0 (5 overall)
                                  Total H  = 1.096868e+00
                                  Total O  = 5.484341e-01

----------------------------Distribution of species----------------------------

                                               Log       Log       Log    mole V
   Species          Molality    Activity  Molality  Activity     Gamma   cm³/mol

   OH-             1.269e-07   1.244e-07    -6.896    -6.905    -0.009     -4.12
   H+              8.295e-08   8.136e-08    -7.081    -7.090    -0.008      0.00
   H2O             2.775e+02   1.000e+00     2.443    -0.000     0.000     18.07
Cl            3.002e-04
   Cl-             3.002e-04   2.943e-04    -3.523    -3.531    -0.009     18.06
H(0)          0.000e+00
   H2              0.000e+00   0.000e+00   -41.901   -41.901     0.000     28.61
Na            3.003e-04
   Na+             3.003e-04   2.944e-04    -3.523    -3.531    -0.009     -1.50
   NaOH            3.662e-21   3.662e-21   -20.436   -20.436     0.000     (0)  
O(0)          5.295e-09
   O2              2.647e-09   2.648e-09    -8.577    -8.577     0.000     30.40

------------------------------Saturation indices-------------------------------

  Phase               SI** log IAP   log K(298 K,   1 atm)

  H2(g)           -38.80    -41.90   -3.10  H2
  H2O(g)           -1.50     -0.00    1.50  H2O
  Halite           -8.63     -7.06    1.57  NaCl
  O2(g)            -5.68     -8.58   -2.89  O2

**For a gas, SI = log10(fugacity). Fugacity = pressure * phi / 1 atm.
  For ideal gases, phi = 1.

------------------
End of simulation.
------------------

-------------------------------------
Reading input data for simulation 15.
-------------------------------------

	END
------------------
End of simulation.
------------------

-------------------------------------
Reading input data for simulation 16.
-------------------------------------

	USE surface 1
	 USE mix 1
	SAVE solution 1
	 SAVE surface 1
	END
-----------------------------------------
Beginning of batch-reaction calculations.
-----------------------------------------

Reaction step 1.

Using mix 1.	
Using surface 1.	

Mixture 1.	

	  5.000e-01 Solution 1	Solution after simulation 14.                          

------------------------------Surface composition------------------------------

Diffuse Double Layer Surface-Complexation Model

Hfo           
	  1.038e-16  Surface + diffuse layer charge, eq
	  1.668e-05  Surface charge, eq
	  2.683e-03  sigma, C/m²
	  5.755e-02  psi, V
	 -2.240e+00  -F*psi/RT
	  1.065e-01  exp(-F*psi/RT)
	  6.000e+02  specific area, m²/g
	  6.000e+02  m² for   1.000e+00 g

	Water in diffuse layer: 2.013e-03 kg,  5.7% of total DDL-water.
	Radius of total pore:   8.389e-09 m; of free pore: 3.752e-09 m.

	Total moles in diffuse layer (excluding water), Donnan calculation.
	Donnan Layer potential, psi_DL =  8.715e-02 V.
	Boltzmann factor, exp(-psi_DL * F / RT) = 3.363e-02 (= c_DL / c_free if z is +1).

	Element       	     Moles
	Cl            	  1.6695e-05
	H             	  7.8911e-09
	Na            	  1.8885e-08
	O             	  7.8963e-09

Hfo_w         
	  1.000e-03  moles
	                                   Mole                     Log
	Species               Moles    Fraction    Molality    Molality

	Hfo_wOH           7.672e-04       0.767   8.627e-02      -1.064
	Hfo_wOH2+         1.248e-04       0.125   1.403e-02      -1.853
	Hfo_wO-           1.081e-04       0.108   1.215e-02      -1.915

Su            
	 -6.218e-13  Surface + diffuse layer charge, eq
	 -1.000e-01  Surface charge, eq
	 -9.649e-01  sigma, C/m²
	 -3.542e-01  psi, V
	  1.378e+01  -F*psi/RT
	  9.699e+05  exp(-F*psi/RT)
	  1.000e+04  specific area, m²/g
	  1.000e+04  m² for   1.000e+00 g

	Water in diffuse layer: 3.356e-02 kg, 94.3% of total DDL-water.
	Radius of total pore:   8.389e-09 m; of free pore: 3.752e-09 m.

	Total moles in diffuse layer (excluding water), Donnan calculation.
	Donnan Layer potential, psi_DL = -2.383e-01 V.
	Boltzmann factor, exp(-psi_DL * F / RT) = 1.068e+04 (= c_DL / c_free if z is +1).

	Element       	     Moles
	Cl            	  8.7605e-10
	H             	  2.8608e-05
	Na            	  9.9971e-02
	O             	  1.7763e-10

Su            
	  1.000e-01  moles
	                                   Mole                     Log
	Species               Moles    Fraction    Molality    Molality

	Su-               1.000e-01       1.000   1.125e+01       1.051

-----------------------------Solution composition------------------------------

	Elements           Molality       Moles

	Cl                2.789e-04   2.480e-06
	Na                2.789e-04   2.480e-06

----------------------------Description of solution----------------------------

                                       pH  =   7.106      Charge balance
                                       pe  =  12.269      Adjusted to redox equilibrium
      Specific Conductance (µS/cm,  25°C)  = 34
                          Density (g/cm³)  =   0.99705
                               Volume (L)  =   0.00892
                        Activity of water  =   1.000
                 Ionic strength (mol/kgw)  =   2.790e-04
                       Mass of water (kg)  =   8.893e-03
                 Total alkalinity (eq/kg)  =   5.190e-08
                         Temperature (°C)  =  25.00
                  Electrical balance (eq)  =   6.634e-12
 Percent error, 100*(Cat-|An|)/(Cat+|An|)  =   0.00
                               Iterations  =   0 (5 overall)
                                  Total H  = 9.871814e-01
                                  Total O  = 4.935907e-01

----------------------------Distribution of species----------------------------

                                               Log       Log       Log    mole V
   Species          Molality    Activity  Molality  Activity     Gamma   cm³/mol

   OH-             1.317e-07   1.292e-07    -6.880    -6.889    -0.008     -4.12
   H+              7.981e-08   7.834e-08    -7.098    -7.106    -0.008      0.00
   H2O             2.775e+02   1.000e+00     2.443    -0.000     0.000     18.07
Cl            2.789e-04
   Cl-             2.789e-04   2.735e-04    -3.555    -3.563    -0.008     18.06
H(0)          0.000e+00
   H2              0.000e+00   0.000e+00   -41.901   -41.901     0.000     28.61
Na            2.789e-04
   Na+             2.789e-04   2.736e-04    -3.555    -3.563    -0.008     -1.50
   NaOH            3.535e-21   3.535e-21   -20.452   -20.452     0.000     (0)  
O(0)          5.281e-09
   O2              2.641e-09   2.641e-09    -8.578    -8.578     0.000     30.40

------------------------------Saturation indices-------------------------------

  Phase               SI** log IAP   log K(298 K,   1 atm)

  H2(g)           -38.80    -41.90   -3.10  H2
  H2O(g)           -1.50     -0.00    1.50  H2O
  Halite           -8.70     -7.13    1.57  NaCl
  O2(g)            -5.69     -8.58   -2.89  O2

**For a gas, SI = log10(fugacity). Fugacity = pressure * phi / 1 atm.
  For ideal gases, phi = 1.

------------------
End of simulation.
------------------

-------------------------------------
Reading input data for simulation 17.
-------------------------------------

-------------------------------
End of Run after 0.043 Seconds.
-------------------------------

