WARNING: Database file from DATABASE keyword is used; command line argument ignored.
   Input file: debye1
  Output file: debye1.out
Database file: ../database/phreeqc.dat

------------------
Reading data base.
------------------

	SOLUTION_MASTER_SPECIES
	SOLUTION_SPECIES
	PHASES
	EXCHANGE_MASTER_SPECIES
	EXCHANGE_SPECIES
	SURFACE_MASTER_SPECIES
	SURFACE_SPECIES
	RATES
	END
------------------------------------
Reading input data for simulation 1.
------------------------------------

	DATABASE ../database/phreeqc.dat
	SOLUTION 0
	 Na 100
	 Cl 100 charge
	SOLUTION 1-10
	 Ca 0.1
	 C(4) 1 charge
	 water 1
	SURFACE_MASTER_SPECIES
	 Su Su-
	SURFACE_SPECIES
	 Su- = Su-
	 log_k 0
	END
-------------------------------------------
Beginning of initial solution calculations.
-------------------------------------------

Initial solution 0.	

-----------------------------Solution composition------------------------------

	Elements           Molality       Moles

	Cl                1.000e-01   1.000e-01  Charge balance
	Na                1.000e-01   1.000e-01

----------------------------Description of solution----------------------------

                                       pH  =   7.000    
                                       pe  =   4.000    
       Specific Conductance (uS/cm, 25 oC) = 10820
                          Density (g/cm3)  =   1.00115
                               Volume (L)  =   1.00469
                        Activity of water  =   0.997
                           Ionic strength  =   1.000e-01
                       Mass of water (kg)  =   1.000e+00
                 Total alkalinity (eq/kg)  =   1.129e-08
                    Total carbon (mol/kg)  =   0.000e+00
                       Total CO2 (mol/kg)  =   0.000e+00
                      Temperature (deg C)  =  25.00
                  Electrical balance (eq)  =  -1.182e-15
 Percent error, 100*(Cat-|An|)/(Cat+|An|)  =  -0.00
                               Iterations  =   9
                                  Total H  = 1.110124e+02
                                  Total O  = 5.550622e+01

----------------------------Distribution of species----------------------------

                                               Log       Log       Log    mole V
   Species          Molality    Activity  Molality  Activity     Gamma   cm3/mol

   OH-             1.324e-07   1.009e-07    -6.878    -6.996    -0.118     -3.73
   H+              1.212e-07   1.000e-07    -6.917    -7.000    -0.083      0.00
   H2O             5.551e+01   9.966e-01     1.744    -0.001     0.000     18.07
Cl            1.000e-01
   Cl-             1.000e-01   7.666e-02    -1.000    -1.115    -0.115     18.34
H(0)          1.384e-25
   H2              6.918e-26   7.079e-26   -25.160   -25.150     0.010     28.61
Na            1.000e-01
   Na+             1.000e-01   7.851e-02    -1.000    -1.105    -0.105     -1.09
   NaOH            7.739e-19   7.919e-19   -18.111   -18.101     0.010     (0)  
O(0)          0.000e+00
   O2              0.000e+00   0.000e+00   -42.093   -42.083     0.010     30.40

------------------------------Saturation indices-------------------------------

	Phase               SI   log IAP   log K(298 K,   1 atm)

	H2(g)           -22.05    -25.15   -3.10  H2
	H2O(g)           -1.50     -0.00    1.50  H2O
	Halite           -3.79     -2.22    1.57  NaCl
	O2(g)           -39.19    -42.08   -2.89  O2


Initial solution 1.	

-----------------------------Solution composition------------------------------

	Elements           Molality       Moles

	C(4)              2.439e-04   2.439e-04  Charge balance
	Ca                1.000e-04   1.000e-04

----------------------------Description of solution----------------------------

                                       pH  =   7.000    
                                       pe  =   4.000    
       Specific Conductance (uS/cm, 25 oC) = 20
                          Density (g/cm3)  =   0.99706
                               Volume (L)  =   1.00298
                        Activity of water  =   1.000
                           Ionic strength  =   2.997e-04
                       Mass of water (kg)  =   1.000e+00
                 Total alkalinity (eq/kg)  =   2.000e-04
                       Total CO2 (mol/kg)  =   2.439e-04
                      Temperature (deg C)  =  25.00
                  Electrical balance (eq)  =  -1.303e-12
 Percent error, 100*(Cat-|An|)/(Cat+|An|)  =  -0.00
                               Iterations  =   5
                                  Total H  = 1.110126e+02
                                  Total O  = 5.550690e+01

----------------------------Distribution of species----------------------------

                                               Log       Log       Log    mole V
   Species          Molality    Activity  Molality  Activity     Gamma   cm3/mol

   OH-             1.033e-07   1.012e-07    -6.986    -6.995    -0.009     -4.12
   H+              1.020e-07   1.000e-07    -6.992    -7.000    -0.008      0.00
   H2O             5.551e+01   1.000e+00     1.744    -0.000     0.000     18.07
C(4)          2.439e-04
   HCO3-           1.995e-04   1.956e-04    -3.700    -3.709    -0.009     24.70
   CO2             4.398e-05   4.399e-05    -4.357    -4.357     0.000     29.09
   CaHCO3+         2.346e-07   2.301e-07    -6.630    -6.638    -0.009      9.66
   CO3-2           9.928e-08   9.175e-08    -7.003    -7.037    -0.034     -5.56
   CaCO3           1.421e-08   1.421e-08    -7.848    -7.847     0.000    -14.60
Ca            1.000e-04
   Ca+2            9.975e-05   9.218e-05    -4.001    -4.035    -0.034    -18.19
   CaHCO3+         2.346e-07   2.301e-07    -6.630    -6.638    -0.009      9.66
   CaCO3           1.421e-08   1.421e-08    -7.848    -7.847     0.000    -14.60
   CaOH+           1.560e-10   1.530e-10    -9.807    -9.815    -0.009     (0)  
H(0)          1.416e-25
   H2              7.079e-26   7.079e-26   -25.150   -25.150     0.000     28.61
O(0)          0.000e+00
   O2              0.000e+00   0.000e+00   -42.080   -42.080     0.000     30.40

------------------------------Saturation indices-------------------------------

	Phase               SI   log IAP   log K(298 K,   1 atm)

	Aragonite        -2.74    -11.07   -8.34  CaCO3
	Calcite          -2.59    -11.07   -8.48  CaCO3
	CO2(g)           -2.90     -4.36   -1.46  CO2
	H2(g)           -22.05    -25.15   -3.10  H2
	H2O(g)           -1.50     -0.00    1.50  H2O
	O2(g)           -39.19    -42.08   -2.89  O2


------------------
End of simulation.
------------------

------------------------------------
Reading input data for simulation 2.
------------------------------------

	TRANSPORT
	 cells 10
	 length 1e-9
	 shifts 1 0
	 bcond 1 2
	 timest 5e-10
	 punch_frequency 1
	 multi_d true 1e-9 1 0 1
	SELECTED_OUTPUT
WARNING: Cell-lengths were read for 1 cells. Last value is used till cell 10.
WARNING: No dispersivities were read; disp = 0 assumed.
	 file debye1.sel
	 reset false
	USER_PUNCH
	 heading dist H2O_aq H2O_edl H2O_tot Na Cl pH mass_Na mass_Cl
	 start
	 1 if step_no = 0 then goto 80
	 10 punch dist, tot("water"), edl("water"), tot("water") + edl("water"), tot("Na")*1e3, tot("Cl")*1e3, -la("H+")
	 20 if cell_no = 1 then put(0, 1)
	 30 if cell_no = 1 then put(0, 2)
	 40 put(sys("Na") + get(1), 1)
	 50 put(sys("Cl") + get(2), 2)
	 60 if cell_no = 10 then punch get(1) * 1e3
	 70 if cell_no = 10 then punch get(2) * 1e3
	 80 end
	 end
	END
------------------------------------
Beginning of transport calculations.
------------------------------------

-------------------------------
Equilibrating initial solutions
-------------------------------

Using solution 1.	

-----------------------------Solution composition------------------------------

	Elements           Molality       Moles

	C                 2.439e-04   2.439e-04
	Ca                1.000e-04   1.000e-04

----------------------------Description of solution----------------------------

                                       pH  =   7.000      Charge balance
                                       pe  =   4.000      Adjusted to redox equilibrium
       Specific Conductance (uS/cm, 25 oC) = 20
                          Density (g/cm3)  =   0.99706
                               Volume (L)  =   1.00298
                        Activity of water  =   1.000
                           Ionic strength  =   2.997e-04
                       Mass of water (kg)  =   1.000e+00
                 Total alkalinity (eq/kg)  =   2.000e-04
                       Total CO2 (mol/kg)  =   2.439e-04
                      Temperature (deg C)  =  25.00
                  Electrical balance (eq)  =  -1.303e-12
 Percent error, 100*(Cat-|An|)/(Cat+|An|)  =  -0.00
                               Iterations  =   0
                                  Total H  = 1.110126e+02
                                  Total O  = 5.550690e+01

----------------------------Distribution of species----------------------------

                                               Log       Log       Log    mole V
   Species          Molality    Activity  Molality  Activity     Gamma   cm3/mol

   OH-             1.033e-07   1.012e-07    -6.986    -6.995    -0.009     -4.12
   H+              1.020e-07   1.000e-07    -6.992    -7.000    -0.008      0.00
   H2O             5.551e+01   1.000e+00     1.744    -0.000     0.000     18.07
C(-4)         0.000e+00
   CH4             0.000e+00   0.000e+00   -67.966   -67.966     0.000     32.22
C(4)          2.439e-04
   HCO3-           1.995e-04   1.956e-04    -3.700    -3.709    -0.009     24.70
   CO2             4.398e-05   4.399e-05    -4.357    -4.357     0.000     29.09
   CaHCO3+         2.346e-07   2.301e-07    -6.630    -6.638    -0.009      9.66
   CO3-2           9.928e-08   9.175e-08    -7.003    -7.037    -0.034     -5.56
   CaCO3           1.421e-08   1.421e-08    -7.848    -7.847     0.000    -14.60
Ca            1.000e-04
   Ca+2            9.975e-05   9.218e-05    -4.001    -4.035    -0.034    -18.19
   CaHCO3+         2.346e-07   2.301e-07    -6.630    -6.638    -0.009      9.66
   CaCO3           1.421e-08   1.421e-08    -7.848    -7.847     0.000    -14.60
   CaOH+           1.560e-10   1.530e-10    -9.807    -9.815    -0.009     (0)  
H(0)          1.416e-25
   H2              7.079e-26   7.079e-26   -25.150   -25.150     0.000     28.61
O(0)          0.000e+00
   O2              0.000e+00   0.000e+00   -42.080   -42.080     0.000     30.40

------------------------------Saturation indices-------------------------------

	Phase               SI   log IAP   log K(298 K,   1 atm)

	Aragonite        -2.74    -11.07   -8.34  CaCO3
	Calcite          -2.59    -11.07   -8.48  CaCO3
	CH4(g)          -65.12    -67.97   -2.84  CH4
	CO2(g)           -2.90     -4.36   -1.46  CO2
	H2(g)           -22.05    -25.15   -3.10  H2
	H2O(g)           -1.50     -0.00    1.50  H2O
	O2(g)           -39.19    -42.08   -2.89  O2


Using solution 2.	

-----------------------------Solution composition------------------------------

	Elements           Molality       Moles

	C                 2.439e-04   2.439e-04
	Ca                1.000e-04   1.000e-04

----------------------------Description of solution----------------------------

                                       pH  =   7.000      Charge balance
                                       pe  =   4.000      Adjusted to redox equilibrium
       Specific Conductance (uS/cm, 25 oC) = 20
                          Density (g/cm3)  =   0.99706
                               Volume (L)  =   1.00298
                        Activity of water  =   1.000
                           Ionic strength  =   2.997e-04
                       Mass of water (kg)  =   1.000e+00
                 Total alkalinity (eq/kg)  =   2.000e-04
                       Total CO2 (mol/kg)  =   2.439e-04
                      Temperature (deg C)  =  25.00
                  Electrical balance (eq)  =  -1.303e-12
 Percent error, 100*(Cat-|An|)/(Cat+|An|)  =  -0.00
                               Iterations  =   0
                                  Total H  = 1.110126e+02
                                  Total O  = 5.550690e+01

----------------------------Distribution of species----------------------------

                                               Log       Log       Log    mole V
   Species          Molality    Activity  Molality  Activity     Gamma   cm3/mol

   OH-             1.033e-07   1.012e-07    -6.986    -6.995    -0.009     -4.12
   H+              1.020e-07   1.000e-07    -6.992    -7.000    -0.008      0.00
   H2O             5.551e+01   1.000e+00     1.744    -0.000     0.000     18.07
C(-4)         0.000e+00
   CH4             0.000e+00   0.000e+00   -67.966   -67.966     0.000     32.22
C(4)          2.439e-04
   HCO3-           1.995e-04   1.956e-04    -3.700    -3.709    -0.009     24.70
   CO2             4.398e-05   4.399e-05    -4.357    -4.357     0.000     29.09
   CaHCO3+         2.346e-07   2.301e-07    -6.630    -6.638    -0.009      9.66
   CO3-2           9.928e-08   9.175e-08    -7.003    -7.037    -0.034     -5.56
   CaCO3           1.421e-08   1.421e-08    -7.848    -7.847     0.000    -14.60
Ca            1.000e-04
   Ca+2            9.975e-05   9.218e-05    -4.001    -4.035    -0.034    -18.19
   CaHCO3+         2.346e-07   2.301e-07    -6.630    -6.638    -0.009      9.66
   CaCO3           1.421e-08   1.421e-08    -7.848    -7.847     0.000    -14.60
   CaOH+           1.560e-10   1.530e-10    -9.807    -9.815    -0.009     (0)  
H(0)          1.416e-25
   H2              7.079e-26   7.079e-26   -25.150   -25.150     0.000     28.61
O(0)          0.000e+00
   O2              0.000e+00   0.000e+00   -42.080   -42.080     0.000     30.40

------------------------------Saturation indices-------------------------------

	Phase               SI   log IAP   log K(298 K,   1 atm)

	Aragonite        -2.74    -11.07   -8.34  CaCO3
	Calcite          -2.59    -11.07   -8.48  CaCO3
	CH4(g)          -65.12    -67.97   -2.84  CH4
	CO2(g)           -2.90     -4.36   -1.46  CO2
	H2(g)           -22.05    -25.15   -3.10  H2
	H2O(g)           -1.50     -0.00    1.50  H2O
	O2(g)           -39.19    -42.08   -2.89  O2


Using solution 3.	

-----------------------------Solution composition------------------------------

	Elements           Molality       Moles

	C                 2.439e-04   2.439e-04
	Ca                1.000e-04   1.000e-04

----------------------------Description of solution----------------------------

                                       pH  =   7.000      Charge balance
                                       pe  =   4.000      Adjusted to redox equilibrium
       Specific Conductance (uS/cm, 25 oC) = 20
                          Density (g/cm3)  =   0.99706
                               Volume (L)  =   1.00298
                        Activity of water  =   1.000
                           Ionic strength  =   2.997e-04
                       Mass of water (kg)  =   1.000e+00
                 Total alkalinity (eq/kg)  =   2.000e-04
                       Total CO2 (mol/kg)  =   2.439e-04
                      Temperature (deg C)  =  25.00
                  Electrical balance (eq)  =  -1.303e-12
 Percent error, 100*(Cat-|An|)/(Cat+|An|)  =  -0.00
                               Iterations  =   0
                                  Total H  = 1.110126e+02
                                  Total O  = 5.550690e+01

----------------------------Distribution of species----------------------------

                                               Log       Log       Log    mole V
   Species          Molality    Activity  Molality  Activity     Gamma   cm3/mol

   OH-             1.033e-07   1.012e-07    -6.986    -6.995    -0.009     -4.12
   H+              1.020e-07   1.000e-07    -6.992    -7.000    -0.008      0.00
   H2O             5.551e+01   1.000e+00     1.744    -0.000     0.000     18.07
C(-4)         0.000e+00
   CH4             0.000e+00   0.000e+00   -67.966   -67.966     0.000     32.22
C(4)          2.439e-04
   HCO3-           1.995e-04   1.956e-04    -3.700    -3.709    -0.009     24.70
   CO2             4.398e-05   4.399e-05    -4.357    -4.357     0.000     29.09
   CaHCO3+         2.346e-07   2.301e-07    -6.630    -6.638    -0.009      9.66
   CO3-2           9.928e-08   9.175e-08    -7.003    -7.037    -0.034     -5.56
   CaCO3           1.421e-08   1.421e-08    -7.848    -7.847     0.000    -14.60
Ca            1.000e-04
   Ca+2            9.975e-05   9.218e-05    -4.001    -4.035    -0.034    -18.19
   CaHCO3+         2.346e-07   2.301e-07    -6.630    -6.638    -0.009      9.66
   CaCO3           1.421e-08   1.421e-08    -7.848    -7.847     0.000    -14.60
   CaOH+           1.560e-10   1.530e-10    -9.807    -9.815    -0.009     (0)  
H(0)          1.416e-25
   H2              7.079e-26   7.079e-26   -25.150   -25.150     0.000     28.61
O(0)          0.000e+00
   O2              0.000e+00   0.000e+00   -42.080   -42.080     0.000     30.40

------------------------------Saturation indices-------------------------------

	Phase               SI   log IAP   log K(298 K,   1 atm)

	Aragonite        -2.74    -11.07   -8.34  CaCO3
	Calcite          -2.59    -11.07   -8.48  CaCO3
	CH4(g)          -65.12    -67.97   -2.84  CH4
	CO2(g)           -2.90     -4.36   -1.46  CO2
	H2(g)           -22.05    -25.15   -3.10  H2
	H2O(g)           -1.50     -0.00    1.50  H2O
	O2(g)           -39.19    -42.08   -2.89  O2


Using solution 4.	

-----------------------------Solution composition------------------------------

	Elements           Molality       Moles

	C                 2.439e-04   2.439e-04
	Ca                1.000e-04   1.000e-04

----------------------------Description of solution----------------------------

                                       pH  =   7.000      Charge balance
                                       pe  =   4.000      Adjusted to redox equilibrium
       Specific Conductance (uS/cm, 25 oC) = 20
                          Density (g/cm3)  =   0.99706
                               Volume (L)  =   1.00298
                        Activity of water  =   1.000
                           Ionic strength  =   2.997e-04
                       Mass of water (kg)  =   1.000e+00
                 Total alkalinity (eq/kg)  =   2.000e-04
                       Total CO2 (mol/kg)  =   2.439e-04
                      Temperature (deg C)  =  25.00
                  Electrical balance (eq)  =  -1.303e-12
 Percent error, 100*(Cat-|An|)/(Cat+|An|)  =  -0.00
                               Iterations  =   0
                                  Total H  = 1.110126e+02
                                  Total O  = 5.550690e+01

----------------------------Distribution of species----------------------------

                                               Log       Log       Log    mole V
   Species          Molality    Activity  Molality  Activity     Gamma   cm3/mol

   OH-             1.033e-07   1.012e-07    -6.986    -6.995    -0.009     -4.12
   H+              1.020e-07   1.000e-07    -6.992    -7.000    -0.008      0.00
   H2O             5.551e+01   1.000e+00     1.744    -0.000     0.000     18.07
C(-4)         0.000e+00
   CH4             0.000e+00   0.000e+00   -67.966   -67.966     0.000     32.22
C(4)          2.439e-04
   HCO3-           1.995e-04   1.956e-04    -3.700    -3.709    -0.009     24.70
   CO2             4.398e-05   4.399e-05    -4.357    -4.357     0.000     29.09
   CaHCO3+         2.346e-07   2.301e-07    -6.630    -6.638    -0.009      9.66
   CO3-2           9.928e-08   9.175e-08    -7.003    -7.037    -0.034     -5.56
   CaCO3           1.421e-08   1.421e-08    -7.848    -7.847     0.000    -14.60
Ca            1.000e-04
   Ca+2            9.975e-05   9.218e-05    -4.001    -4.035    -0.034    -18.19
   CaHCO3+         2.346e-07   2.301e-07    -6.630    -6.638    -0.009      9.66
   CaCO3           1.421e-08   1.421e-08    -7.848    -7.847     0.000    -14.60
   CaOH+           1.560e-10   1.530e-10    -9.807    -9.815    -0.009     (0)  
H(0)          1.416e-25
   H2              7.079e-26   7.079e-26   -25.150   -25.150     0.000     28.61
O(0)          0.000e+00
   O2              0.000e+00   0.000e+00   -42.080   -42.080     0.000     30.40

------------------------------Saturation indices-------------------------------

	Phase               SI   log IAP   log K(298 K,   1 atm)

	Aragonite        -2.74    -11.07   -8.34  CaCO3
	Calcite          -2.59    -11.07   -8.48  CaCO3
	CH4(g)          -65.12    -67.97   -2.84  CH4
	CO2(g)           -2.90     -4.36   -1.46  CO2
	H2(g)           -22.05    -25.15   -3.10  H2
	H2O(g)           -1.50     -0.00    1.50  H2O
	O2(g)           -39.19    -42.08   -2.89  O2


Using solution 5.	

-----------------------------Solution composition------------------------------

	Elements           Molality       Moles

	C                 2.439e-04   2.439e-04
	Ca                1.000e-04   1.000e-04

----------------------------Description of solution----------------------------

                                       pH  =   7.000      Charge balance
                                       pe  =   4.000      Adjusted to redox equilibrium
       Specific Conductance (uS/cm, 25 oC) = 20
                          Density (g/cm3)  =   0.99706
                               Volume (L)  =   1.00298
                        Activity of water  =   1.000
                           Ionic strength  =   2.997e-04
                       Mass of water (kg)  =   1.000e+00
                 Total alkalinity (eq/kg)  =   2.000e-04
                       Total CO2 (mol/kg)  =   2.439e-04
                      Temperature (deg C)  =  25.00
                  Electrical balance (eq)  =  -1.303e-12
 Percent error, 100*(Cat-|An|)/(Cat+|An|)  =  -0.00
                               Iterations  =   0
                                  Total H  = 1.110126e+02
                                  Total O  = 5.550690e+01

----------------------------Distribution of species----------------------------

                                               Log       Log       Log    mole V
   Species          Molality    Activity  Molality  Activity     Gamma   cm3/mol

   OH-             1.033e-07   1.012e-07    -6.986    -6.995    -0.009     -4.12
   H+              1.020e-07   1.000e-07    -6.992    -7.000    -0.008      0.00
   H2O             5.551e+01   1.000e+00     1.744    -0.000     0.000     18.07
C(-4)         0.000e+00
   CH4             0.000e+00   0.000e+00   -67.966   -67.966     0.000     32.22
C(4)          2.439e-04
   HCO3-           1.995e-04   1.956e-04    -3.700    -3.709    -0.009     24.70
   CO2             4.398e-05   4.399e-05    -4.357    -4.357     0.000     29.09
   CaHCO3+         2.346e-07   2.301e-07    -6.630    -6.638    -0.009      9.66
   CO3-2           9.928e-08   9.175e-08    -7.003    -7.037    -0.034     -5.56
   CaCO3           1.421e-08   1.421e-08    -7.848    -7.847     0.000    -14.60
Ca            1.000e-04
   Ca+2            9.975e-05   9.218e-05    -4.001    -4.035    -0.034    -18.19
   CaHCO3+         2.346e-07   2.301e-07    -6.630    -6.638    -0.009      9.66
   CaCO3           1.421e-08   1.421e-08    -7.848    -7.847     0.000    -14.60
   CaOH+           1.560e-10   1.530e-10    -9.807    -9.815    -0.009     (0)  
H(0)          1.416e-25
   H2              7.079e-26   7.079e-26   -25.150   -25.150     0.000     28.61
O(0)          0.000e+00
   O2              0.000e+00   0.000e+00   -42.080   -42.080     0.000     30.40

------------------------------Saturation indices-------------------------------

	Phase               SI   log IAP   log K(298 K,   1 atm)

	Aragonite        -2.74    -11.07   -8.34  CaCO3
	Calcite          -2.59    -11.07   -8.48  CaCO3
	CH4(g)          -65.12    -67.97   -2.84  CH4
	CO2(g)           -2.90     -4.36   -1.46  CO2
	H2(g)           -22.05    -25.15   -3.10  H2
	H2O(g)           -1.50     -0.00    1.50  H2O
	O2(g)           -39.19    -42.08   -2.89  O2


Using solution 6.	

-----------------------------Solution composition------------------------------

	Elements           Molality       Moles

	C                 2.439e-04   2.439e-04
	Ca                1.000e-04   1.000e-04

----------------------------Description of solution----------------------------

                                       pH  =   7.000      Charge balance
                                       pe  =   4.000      Adjusted to redox equilibrium
       Specific Conductance (uS/cm, 25 oC) = 20
                          Density (g/cm3)  =   0.99706
                               Volume (L)  =   1.00298
                        Activity of water  =   1.000
                           Ionic strength  =   2.997e-04
                       Mass of water (kg)  =   1.000e+00
                 Total alkalinity (eq/kg)  =   2.000e-04
                       Total CO2 (mol/kg)  =   2.439e-04
                      Temperature (deg C)  =  25.00
                  Electrical balance (eq)  =  -1.303e-12
 Percent error, 100*(Cat-|An|)/(Cat+|An|)  =  -0.00
                               Iterations  =   0
                                  Total H  = 1.110126e+02
                                  Total O  = 5.550690e+01

----------------------------Distribution of species----------------------------

                                               Log       Log       Log    mole V
   Species          Molality    Activity  Molality  Activity     Gamma   cm3/mol

   OH-             1.033e-07   1.012e-07    -6.986    -6.995    -0.009     -4.12
   H+              1.020e-07   1.000e-07    -6.992    -7.000    -0.008      0.00
   H2O             5.551e+01   1.000e+00     1.744    -0.000     0.000     18.07
C(-4)         0.000e+00
   CH4             0.000e+00   0.000e+00   -67.966   -67.966     0.000     32.22
C(4)          2.439e-04
   HCO3-           1.995e-04   1.956e-04    -3.700    -3.709    -0.009     24.70
   CO2             4.398e-05   4.399e-05    -4.357    -4.357     0.000     29.09
   CaHCO3+         2.346e-07   2.301e-07    -6.630    -6.638    -0.009      9.66
   CO3-2           9.928e-08   9.175e-08    -7.003    -7.037    -0.034     -5.56
   CaCO3           1.421e-08   1.421e-08    -7.848    -7.847     0.000    -14.60
Ca            1.000e-04
   Ca+2            9.975e-05   9.218e-05    -4.001    -4.035    -0.034    -18.19
   CaHCO3+         2.346e-07   2.301e-07    -6.630    -6.638    -0.009      9.66
   CaCO3           1.421e-08   1.421e-08    -7.848    -7.847     0.000    -14.60
   CaOH+           1.560e-10   1.530e-10    -9.807    -9.815    -0.009     (0)  
H(0)          1.416e-25
   H2              7.079e-26   7.079e-26   -25.150   -25.150     0.000     28.61
O(0)          0.000e+00
   O2              0.000e+00   0.000e+00   -42.080   -42.080     0.000     30.40

------------------------------Saturation indices-------------------------------

	Phase               SI   log IAP   log K(298 K,   1 atm)

	Aragonite        -2.74    -11.07   -8.34  CaCO3
	Calcite          -2.59    -11.07   -8.48  CaCO3
	CH4(g)          -65.12    -67.97   -2.84  CH4
	CO2(g)           -2.90     -4.36   -1.46  CO2
	H2(g)           -22.05    -25.15   -3.10  H2
	H2O(g)           -1.50     -0.00    1.50  H2O
	O2(g)           -39.19    -42.08   -2.89  O2


Using solution 7.	

-----------------------------Solution composition------------------------------

	Elements           Molality       Moles

	C                 2.439e-04   2.439e-04
	Ca                1.000e-04   1.000e-04

----------------------------Description of solution----------------------------

                                       pH  =   7.000      Charge balance
                                       pe  =   4.000      Adjusted to redox equilibrium
       Specific Conductance (uS/cm, 25 oC) = 20
                          Density (g/cm3)  =   0.99706
                               Volume (L)  =   1.00298
                        Activity of water  =   1.000
                           Ionic strength  =   2.997e-04
                       Mass of water (kg)  =   1.000e+00
                 Total alkalinity (eq/kg)  =   2.000e-04
                       Total CO2 (mol/kg)  =   2.439e-04
                      Temperature (deg C)  =  25.00
                  Electrical balance (eq)  =  -1.303e-12
 Percent error, 100*(Cat-|An|)/(Cat+|An|)  =  -0.00
                               Iterations  =   0
                                  Total H  = 1.110126e+02
                                  Total O  = 5.550690e+01

----------------------------Distribution of species----------------------------

                                               Log       Log       Log    mole V
   Species          Molality    Activity  Molality  Activity     Gamma   cm3/mol

   OH-             1.033e-07   1.012e-07    -6.986    -6.995    -0.009     -4.12
   H+              1.020e-07   1.000e-07    -6.992    -7.000    -0.008      0.00
   H2O             5.551e+01   1.000e+00     1.744    -0.000     0.000     18.07
C(-4)         0.000e+00
   CH4             0.000e+00   0.000e+00   -67.966   -67.966     0.000     32.22
C(4)          2.439e-04
   HCO3-           1.995e-04   1.956e-04    -3.700    -3.709    -0.009     24.70
   CO2             4.398e-05   4.399e-05    -4.357    -4.357     0.000     29.09
   CaHCO3+         2.346e-07   2.301e-07    -6.630    -6.638    -0.009      9.66
   CO3-2           9.928e-08   9.175e-08    -7.003    -7.037    -0.034     -5.56
   CaCO3           1.421e-08   1.421e-08    -7.848    -7.847     0.000    -14.60
Ca            1.000e-04
   Ca+2            9.975e-05   9.218e-05    -4.001    -4.035    -0.034    -18.19
   CaHCO3+         2.346e-07   2.301e-07    -6.630    -6.638    -0.009      9.66
   CaCO3           1.421e-08   1.421e-08    -7.848    -7.847     0.000    -14.60
   CaOH+           1.560e-10   1.530e-10    -9.807    -9.815    -0.009     (0)  
H(0)          1.416e-25
   H2              7.079e-26   7.079e-26   -25.150   -25.150     0.000     28.61
O(0)          0.000e+00
   O2              0.000e+00   0.000e+00   -42.080   -42.080     0.000     30.40

------------------------------Saturation indices-------------------------------

	Phase               SI   log IAP   log K(298 K,   1 atm)

	Aragonite        -2.74    -11.07   -8.34  CaCO3
	Calcite          -2.59    -11.07   -8.48  CaCO3
	CH4(g)          -65.12    -67.97   -2.84  CH4
	CO2(g)           -2.90     -4.36   -1.46  CO2
	H2(g)           -22.05    -25.15   -3.10  H2
	H2O(g)           -1.50     -0.00    1.50  H2O
	O2(g)           -39.19    -42.08   -2.89  O2


Using solution 8.	

-----------------------------Solution composition------------------------------

	Elements           Molality       Moles

	C                 2.439e-04   2.439e-04
	Ca                1.000e-04   1.000e-04

----------------------------Description of solution----------------------------

                                       pH  =   7.000      Charge balance
                                       pe  =   4.000      Adjusted to redox equilibrium
       Specific Conductance (uS/cm, 25 oC) = 20
                          Density (g/cm3)  =   0.99706
                               Volume (L)  =   1.00298
                        Activity of water  =   1.000
                           Ionic strength  =   2.997e-04
                       Mass of water (kg)  =   1.000e+00
                 Total alkalinity (eq/kg)  =   2.000e-04
                       Total CO2 (mol/kg)  =   2.439e-04
                      Temperature (deg C)  =  25.00
                  Electrical balance (eq)  =  -1.303e-12
 Percent error, 100*(Cat-|An|)/(Cat+|An|)  =  -0.00
                               Iterations  =   0
                                  Total H  = 1.110126e+02
                                  Total O  = 5.550690e+01

----------------------------Distribution of species----------------------------

                                               Log       Log       Log    mole V
   Species          Molality    Activity  Molality  Activity     Gamma   cm3/mol

   OH-             1.033e-07   1.012e-07    -6.986    -6.995    -0.009     -4.12
   H+              1.020e-07   1.000e-07    -6.992    -7.000    -0.008      0.00
   H2O             5.551e+01   1.000e+00     1.744    -0.000     0.000     18.07
C(-4)         0.000e+00
   CH4             0.000e+00   0.000e+00   -67.966   -67.966     0.000     32.22
C(4)          2.439e-04
   HCO3-           1.995e-04   1.956e-04    -3.700    -3.709    -0.009     24.70
   CO2             4.398e-05   4.399e-05    -4.357    -4.357     0.000     29.09
   CaHCO3+         2.346e-07   2.301e-07    -6.630    -6.638    -0.009      9.66
   CO3-2           9.928e-08   9.175e-08    -7.003    -7.037    -0.034     -5.56
   CaCO3           1.421e-08   1.421e-08    -7.848    -7.847     0.000    -14.60
Ca            1.000e-04
   Ca+2            9.975e-05   9.218e-05    -4.001    -4.035    -0.034    -18.19
   CaHCO3+         2.346e-07   2.301e-07    -6.630    -6.638    -0.009      9.66
   CaCO3           1.421e-08   1.421e-08    -7.848    -7.847     0.000    -14.60
   CaOH+           1.560e-10   1.530e-10    -9.807    -9.815    -0.009     (0)  
H(0)          1.416e-25
   H2              7.079e-26   7.079e-26   -25.150   -25.150     0.000     28.61
O(0)          0.000e+00
   O2              0.000e+00   0.000e+00   -42.080   -42.080     0.000     30.40

------------------------------Saturation indices-------------------------------

	Phase               SI   log IAP   log K(298 K,   1 atm)

	Aragonite        -2.74    -11.07   -8.34  CaCO3
	Calcite          -2.59    -11.07   -8.48  CaCO3
	CH4(g)          -65.12    -67.97   -2.84  CH4
	CO2(g)           -2.90     -4.36   -1.46  CO2
	H2(g)           -22.05    -25.15   -3.10  H2
	H2O(g)           -1.50     -0.00    1.50  H2O
	O2(g)           -39.19    -42.08   -2.89  O2


Using solution 9.	

-----------------------------Solution composition------------------------------

	Elements           Molality       Moles

	C                 2.439e-04   2.439e-04
	Ca                1.000e-04   1.000e-04

----------------------------Description of solution----------------------------

                                       pH  =   7.000      Charge balance
                                       pe  =   4.000      Adjusted to redox equilibrium
       Specific Conductance (uS/cm, 25 oC) = 20
                          Density (g/cm3)  =   0.99706
                               Volume (L)  =   1.00298
                        Activity of water  =   1.000
                           Ionic strength  =   2.997e-04
                       Mass of water (kg)  =   1.000e+00
                 Total alkalinity (eq/kg)  =   2.000e-04
                       Total CO2 (mol/kg)  =   2.439e-04
                      Temperature (deg C)  =  25.00
                  Electrical balance (eq)  =  -1.303e-12
 Percent error, 100*(Cat-|An|)/(Cat+|An|)  =  -0.00
                               Iterations  =   0
                                  Total H  = 1.110126e+02
                                  Total O  = 5.550690e+01

----------------------------Distribution of species----------------------------

                                               Log       Log       Log    mole V
   Species          Molality    Activity  Molality  Activity     Gamma   cm3/mol

   OH-             1.033e-07   1.012e-07    -6.986    -6.995    -0.009     -4.12
   H+              1.020e-07   1.000e-07    -6.992    -7.000    -0.008      0.00
   H2O             5.551e+01   1.000e+00     1.744    -0.000     0.000     18.07
C(-4)         0.000e+00
   CH4             0.000e+00   0.000e+00   -67.966   -67.966     0.000     32.22
C(4)          2.439e-04
   HCO3-           1.995e-04   1.956e-04    -3.700    -3.709    -0.009     24.70
   CO2             4.398e-05   4.399e-05    -4.357    -4.357     0.000     29.09
   CaHCO3+         2.346e-07   2.301e-07    -6.630    -6.638    -0.009      9.66
   CO3-2           9.928e-08   9.175e-08    -7.003    -7.037    -0.034     -5.56
   CaCO3           1.421e-08   1.421e-08    -7.848    -7.847     0.000    -14.60
Ca            1.000e-04
   Ca+2            9.975e-05   9.218e-05    -4.001    -4.035    -0.034    -18.19
   CaHCO3+         2.346e-07   2.301e-07    -6.630    -6.638    -0.009      9.66
   CaCO3           1.421e-08   1.421e-08    -7.848    -7.847     0.000    -14.60
   CaOH+           1.560e-10   1.530e-10    -9.807    -9.815    -0.009     (0)  
H(0)          1.416e-25
   H2              7.079e-26   7.079e-26   -25.150   -25.150     0.000     28.61
O(0)          0.000e+00
   O2              0.000e+00   0.000e+00   -42.080   -42.080     0.000     30.40

------------------------------Saturation indices-------------------------------

	Phase               SI   log IAP   log K(298 K,   1 atm)

	Aragonite        -2.74    -11.07   -8.34  CaCO3
	Calcite          -2.59    -11.07   -8.48  CaCO3
	CH4(g)          -65.12    -67.97   -2.84  CH4
	CO2(g)           -2.90     -4.36   -1.46  CO2
	H2(g)           -22.05    -25.15   -3.10  H2
	H2O(g)           -1.50     -0.00    1.50  H2O
	O2(g)           -39.19    -42.08   -2.89  O2


Using solution 10.	

-----------------------------Solution composition------------------------------

	Elements           Molality       Moles

	C                 2.439e-04   2.439e-04
	Ca                1.000e-04   1.000e-04

----------------------------Description of solution----------------------------

                                       pH  =   7.000      Charge balance
                                       pe  =   4.000      Adjusted to redox equilibrium
       Specific Conductance (uS/cm, 25 oC) = 20
                          Density (g/cm3)  =   0.99706
                               Volume (L)  =   1.00298
                        Activity of water  =   1.000
                           Ionic strength  =   2.997e-04
                       Mass of water (kg)  =   1.000e+00
                 Total alkalinity (eq/kg)  =   2.000e-04
                       Total CO2 (mol/kg)  =   2.439e-04
                      Temperature (deg C)  =  25.00
                  Electrical balance (eq)  =  -1.303e-12
 Percent error, 100*(Cat-|An|)/(Cat+|An|)  =  -0.00
                               Iterations  =   0
                                  Total H  = 1.110126e+02
                                  Total O  = 5.550690e+01

----------------------------Distribution of species----------------------------

                                               Log       Log       Log    mole V
   Species          Molality    Activity  Molality  Activity     Gamma   cm3/mol

   OH-             1.033e-07   1.012e-07    -6.986    -6.995    -0.009     -4.12
   H+              1.020e-07   1.000e-07    -6.992    -7.000    -0.008      0.00
   H2O             5.551e+01   1.000e+00     1.744    -0.000     0.000     18.07
C(-4)         0.000e+00
   CH4             0.000e+00   0.000e+00   -67.966   -67.966     0.000     32.22
C(4)          2.439e-04
   HCO3-           1.995e-04   1.956e-04    -3.700    -3.709    -0.009     24.70
   CO2             4.398e-05   4.399e-05    -4.357    -4.357     0.000     29.09
   CaHCO3+         2.346e-07   2.301e-07    -6.630    -6.638    -0.009      9.66
   CO3-2           9.928e-08   9.175e-08    -7.003    -7.037    -0.034     -5.56
   CaCO3           1.421e-08   1.421e-08    -7.848    -7.847     0.000    -14.60
Ca            1.000e-04
   Ca+2            9.975e-05   9.218e-05    -4.001    -4.035    -0.034    -18.19
   CaHCO3+         2.346e-07   2.301e-07    -6.630    -6.638    -0.009      9.66
   CaCO3           1.421e-08   1.421e-08    -7.848    -7.847     0.000    -14.60
   CaOH+           1.560e-10   1.530e-10    -9.807    -9.815    -0.009     (0)  
H(0)          1.416e-25
   H2              7.079e-26   7.079e-26   -25.150   -25.150     0.000     28.61
O(0)          0.000e+00
   O2              0.000e+00   0.000e+00   -42.080   -42.080     0.000     30.40

------------------------------Saturation indices-------------------------------

	Phase               SI   log IAP   log K(298 K,   1 atm)

	Aragonite        -2.74    -11.07   -8.34  CaCO3
	Calcite          -2.59    -11.07   -8.48  CaCO3
	CH4(g)          -65.12    -67.97   -2.84  CH4
	CO2(g)           -2.90     -4.36   -1.46  CO2
	H2(g)           -22.05    -25.15   -3.10  H2
	H2O(g)           -1.50     -0.00    1.50  H2O
	O2(g)           -39.19    -42.08   -2.89  O2


Transport step   1. Multicomponent diffusion run   1.

Transport step   1. Multicomponent diffusion run   2.

Transport step   1. Multicomponent diffusion run   3.

Transport step   1. Multicomponent diffusion run   4.

Transport step   1. Multicomponent diffusion run   5.

Transport step   1. Multicomponent diffusion run   6.

Transport step   1. Multicomponent diffusion run   7.

Transport step   1. Multicomponent diffusion run   8.

Transport step   1. Multicomponent diffusion run   9.

Transport step   1. Multicomponent diffusion run  10.

Transport step   1. Multicomponent diffusion run  11.

Transport step   1. Multicomponent diffusion run  12.

Transport step   1. Multicomponent diffusion run  13.

Transport step   1. Multicomponent diffusion run  14.

Transport step   1. Multicomponent diffusion run  15.

Transport step   1. Multicomponent diffusion run  16.

Transport step   1. Multicomponent diffusion run  17.

Transport step   1. Multicomponent diffusion run  18.

Transport step   1. Multicomponent diffusion run  19.

Transport step   1. Multicomponent diffusion run  20.

Transport step   1. Multicomponent diffusion run  21.

Using mix 1.	

Mixture 1.	

	  0.000e+00 Solution 0	Solution after simulation 2.                           
	  1.000e+00 Solution 1	Solution after simulation 2.                           
	  0.000e+00 Solution 2	Solution after simulation 2.                           

-----------------------------Solution composition------------------------------

	Elements           Molality       Moles

	C                 1.064e-04   1.064e-04
	Ca                5.283e-05   5.283e-05
	Cl                6.373e-02   6.373e-02
	Na                6.372e-02   6.372e-02

----------------------------Description of solution----------------------------

                                       pH  =   7.077      Charge balance
                                       pe  =  11.310      Adjusted to redox equilibrium
       Specific Conductance (uS/cm, 25 oC) = 7058
                          Density (g/cm3)  =   0.99968
                               Volume (L)  =   1.00406
                        Activity of water  =   0.998
                           Ionic strength  =   6.388e-02
                       Mass of water (kg)  =   1.000e+00
                 Total alkalinity (eq/kg)  =   9.288e-05
                       Total CO2 (mol/kg)  =   1.064e-04
                      Temperature (deg C)  =  25.00
                  Electrical balance (eq)  =  -4.134e-13
 Percent error, 100*(Cat-|An|)/(Cat+|An|)  =  -0.00
                               Iterations  =   3
                                  Total H  = 1.110125e+02
                                  Total O  = 5.550652e+01

----------------------------Distribution of species----------------------------

                                               Log       Log       Log    mole V
   Species          Molality    Activity  Molality  Activity     Gamma   cm3/mol

   OH-             1.518e-07   1.206e-07    -6.819    -6.919    -0.100     -3.83
   H+              9.925e-08   8.375e-08    -7.003    -7.077    -0.074      0.00
   H2O             5.551e+01   9.978e-01     1.744    -0.001     0.000     18.07
C(-4)         0.000e+00
   CH4             0.000e+00   0.000e+00  -127.564  -127.557     0.006     32.22
C(4)          1.064e-04
   HCO3-           9.040e-05   7.365e-05    -4.044    -4.133    -0.089     25.07
   CO2             1.369e-05   1.390e-05    -4.863    -4.857     0.006     29.09
   NaHCO3          2.109e-06   2.140e-06    -5.676    -5.670     0.006      2.13
   CO3-2           9.362e-08   4.124e-08    -7.029    -7.385    -0.356     -4.65
   NaCO3-          4.917e-08   3.968e-08    -7.308    -7.401    -0.093     -0.12
   CaHCO3+         2.678e-08   2.197e-08    -7.572    -7.658    -0.086      9.81
   CaCO3           1.596e-09   1.620e-09    -8.797    -8.791     0.006    -14.60
Ca            5.283e-05
   Ca+2            5.281e-05   2.338e-05    -4.277    -4.631    -0.354    -17.56
   CaHCO3+         2.678e-08   2.197e-08    -7.572    -7.658    -0.086      9.81
   CaCO3           1.596e-09   1.620e-09    -8.797    -8.791     0.006    -14.60
   CaOH+           5.729e-11   4.623e-11   -10.242   -10.335    -0.093     (0)  
Cl            6.373e-02
   Cl-             6.373e-02   5.086e-02    -1.196    -1.294    -0.098     18.28
H(0)          2.353e-40
   H2              1.176e-40   1.194e-40   -39.929   -39.923     0.006     28.61
Na            6.372e-02
   Na+             6.372e-02   5.167e-02    -1.196    -1.287    -0.091     -1.16
   NaHCO3          2.109e-06   2.140e-06    -5.676    -5.670     0.006      2.13
   NaCO3-          4.917e-08   3.968e-08    -7.308    -7.401    -0.093     -0.12
   NaOH            6.140e-19   6.231e-19   -18.212   -18.205     0.006     (0)  
O(0)          5.740e-13
   O2              2.870e-13   2.913e-13   -12.542   -12.536     0.006     30.40

------------------------------Saturation indices-------------------------------

	Phase               SI   log IAP   log K(298 K,   1 atm)

	Aragonite        -3.68    -12.02   -8.34  CaCO3
	Calcite          -3.54    -12.02   -8.48  CaCO3
	CH4(g)         -124.71   -127.56   -2.84  CH4
	CO2(g)           -3.40     -4.86   -1.46  CO2
	H2(g)           -36.82    -39.92   -3.10  H2
	H2O(g)           -1.50     -0.00    1.50  H2O
	Halite           -4.15     -2.58    1.57  NaCl
	O2(g)            -9.64    -12.54   -2.89  O2


Using mix 2.	

Mixture 2.	

	  0.000e+00 Solution 1	Solution after simulation 2.                           
	  1.000e+00 Solution 2	Solution after simulation 2.                           
	  0.000e+00 Solution 3	Solution after simulation 2.                           

-----------------------------Solution composition------------------------------

	Elements           Molality       Moles

	C                 2.056e-04   2.056e-04
	Ca                8.738e-05   8.738e-05
	Cl                1.965e-02   1.965e-02
	Na                1.965e-02   1.965e-02

----------------------------Description of solution----------------------------

                                       pH  =   7.008      Charge balance
                                       pe  =  11.498      Adjusted to redox equilibrium
       Specific Conductance (uS/cm, 25 oC) = 2296
                          Density (g/cm3)  =   0.99787
                               Volume (L)  =   1.00331
                        Activity of water  =   0.999
                           Ionic strength  =   1.991e-02
                       Mass of water (kg)  =   1.000e+00
                 Total alkalinity (eq/kg)  =   1.728e-04
                       Total CO2 (mol/kg)  =   2.056e-04
                      Temperature (deg C)  =  25.00
                  Electrical balance (eq)  =  -8.452e-13
 Percent error, 100*(Cat-|An|)/(Cat+|An|)  =  -0.00
                               Iterations  =   3
                                  Total H  = 1.110126e+02
                                  Total O  = 5.550680e+01

----------------------------Distribution of species----------------------------

                                               Log       Log       Log    mole V
   Species          Molality    Activity  Molality  Activity     Gamma   cm3/mol

   OH-             1.189e-07   1.031e-07    -6.925    -6.987    -0.062     -3.98
   H+              1.102e-07   9.808e-08    -6.958    -7.008    -0.051      0.00
   H2O             5.551e+01   9.993e-01     1.744    -0.000     0.000     18.07
C(-4)         0.000e+00
   CH4             0.000e+00   0.000e+00  -128.145  -128.143     0.002     32.22
C(4)          2.056e-04
   HCO3-           1.710e-04   1.497e-04    -3.767    -3.825    -0.058     24.86
   CO2             3.289e-05   3.304e-05    -4.483    -4.481     0.002     29.09
   NaHCO3          1.438e-06   1.444e-06    -5.842    -5.840     0.002      2.13
   CO3-2           1.217e-07   7.160e-08    -6.915    -7.145    -0.230     -5.09
   CaHCO3+         1.117e-07   9.808e-08    -6.952    -7.008    -0.056      9.75
   NaCO3-          2.626e-08   2.287e-08    -7.581    -7.641    -0.060     -0.42
   CaCO3           6.147e-09   6.175e-09    -8.211    -8.209     0.002    -14.60
Ca            8.738e-05
   Ca+2            8.726e-05   5.134e-05    -4.059    -4.290    -0.230    -17.82
   CaHCO3+         1.117e-07   9.808e-08    -6.952    -7.008    -0.056      9.75
   CaCO3           6.147e-09   6.175e-09    -8.211    -8.209     0.002    -14.60
   CaOH+           9.967e-11   8.681e-11   -10.001   -10.061    -0.060     (0)  
Cl            1.965e-02
   Cl-             1.965e-02   1.706e-02    -1.707    -1.768    -0.061     18.18
H(0)          0.000e+00
   H2              0.000e+00   0.000e+00   -40.165   -40.163     0.002     28.61
Na            1.965e-02
   Na+             1.964e-02   1.715e-02    -1.707    -1.766    -0.059     -1.27
   NaHCO3          1.438e-06   1.444e-06    -5.842    -5.840     0.002      2.13
   NaCO3-          2.626e-08   2.287e-08    -7.581    -7.641    -0.060     -0.42
   NaOH            1.761e-19   1.769e-19   -18.754   -18.752     0.002     (0)  
O(0)          1.757e-12
   O2              8.787e-13   8.828e-13   -12.056   -12.054     0.002     30.40

------------------------------Saturation indices-------------------------------

	Phase               SI   log IAP   log K(298 K,   1 atm)

	Aragonite        -3.10    -11.43   -8.34  CaCO3
	Calcite          -2.95    -11.43   -8.48  CaCO3
	CH4(g)         -125.30   -128.14   -2.84  CH4
	CO2(g)           -3.02     -4.48   -1.46  CO2
	H2(g)           -37.06    -40.16   -3.10  H2
	H2O(g)           -1.50     -0.00    1.50  H2O
	Halite           -5.10     -3.53    1.57  NaCl
	O2(g)            -9.16    -12.05   -2.89  O2


Using mix 3.	

Mixture 3.	

	  0.000e+00 Solution 2	Solution after simulation 2.                           
	  1.000e+00 Solution 3	Solution after simulation 2.                           
	  0.000e+00 Solution 4	Solution after simulation 2.                           

-----------------------------Solution composition------------------------------

	Elements           Molality       Moles

	C                 2.278e-04   2.278e-04
	Ca                9.902e-05   9.902e-05
	Cl                4.385e-03   4.385e-03
	Na                4.374e-03   4.374e-03

----------------------------Description of solution----------------------------

                                       pH  =   6.977      Charge balance
                                       pe  =  11.596      Adjusted to redox equilibrium
       Specific Conductance (uS/cm, 25 oC) = 547
                          Density (g/cm3)  =   0.99724
                               Volume (L)  =   1.00305
                        Activity of water  =   1.000
                           Ionic strength  =   4.670e-03
                       Mass of water (kg)  =   1.000e+00
                 Total alkalinity (eq/kg)  =   1.869e-04
                       Total CO2 (mol/kg)  =   2.278e-04
                      Temperature (deg C)  =  25.00
                  Electrical balance (eq)  =   3.134e-13
 Percent error, 100*(Cat-|An|)/(Cat+|An|)  =   0.00
                               Iterations  =   3
                                  Total H  = 1.110126e+02
                                  Total O  = 5.550686e+01

----------------------------Distribution of species----------------------------

                                               Log       Log       Log    mole V
   Species          Molality    Activity  Molality  Activity     Gamma   cm3/mol

   H+              1.128e-07   1.055e-07    -6.948    -6.977    -0.029      0.00
   OH-             1.033e-07   9.588e-08    -6.986    -7.018    -0.032     -4.07
   H2O             5.551e+01   9.998e-01     1.744    -0.000     0.000     18.07
C(-4)         0.000e+00
   CH4             0.000e+00   0.000e+00  -128.576  -128.575     0.000     32.22
C(4)          2.278e-04
   HCO3-           1.861e-04   1.732e-04    -3.730    -3.761    -0.031     24.75
   CO2             4.107e-05   4.112e-05    -4.386    -4.386     0.000     29.09
   NaHCO3          3.958e-07   3.962e-07    -6.403    -6.402     0.000      2.13
   CaHCO3+         1.760e-07   1.640e-07    -6.755    -6.785    -0.031      9.70
   CO3-2           1.025e-07   7.697e-08    -6.989    -7.114    -0.124     -5.37
   CaCO3           9.583e-09   9.593e-09    -8.019    -8.018     0.000    -14.60
   NaCO3-          6.273e-09   5.829e-09    -8.202    -8.234    -0.032     -0.56
Ca            9.902e-05
   Ca+2            9.884e-05   7.419e-05    -4.005    -4.130    -0.125    -18.02
   CaHCO3+         1.760e-07   1.640e-07    -6.755    -6.785    -0.031      9.70
   CaCO3           9.583e-09   9.593e-09    -8.019    -8.018     0.000    -14.60
   CaOH+           1.255e-10   1.166e-10    -9.901    -9.933    -0.032     (0)  
Cl            4.385e-03
   Cl-             4.385e-03   4.072e-03    -2.358    -2.390    -0.032     18.11
H(0)          0.000e+00
   H2              0.000e+00   0.000e+00   -40.295   -40.295     0.000     28.61
Na            4.374e-03
   Na+             4.373e-03   4.067e-03    -2.359    -2.391    -0.032     -1.35
   NaHCO3          3.958e-07   3.962e-07    -6.403    -6.402     0.000      2.13
   NaCO3-          6.273e-09   5.829e-09    -8.202    -8.234    -0.032     -0.56
   NaOH            3.895e-20   3.899e-20   -19.409   -19.409     0.000     (0)  
O(0)          3.238e-12
   O2              1.619e-12   1.621e-12   -11.791   -11.790     0.000     30.40

------------------------------Saturation indices-------------------------------

	Phase               SI   log IAP   log K(298 K,   1 atm)

	Aragonite        -2.91    -11.24   -8.34  CaCO3
	Calcite          -2.76    -11.24   -8.48  CaCO3
	CH4(g)         -125.73   -128.58   -2.84  CH4
	CO2(g)           -2.92     -4.39   -1.46  CO2
	H2(g)           -37.19    -40.29   -3.10  H2
	H2O(g)           -1.50     -0.00    1.50  H2O
	Halite           -6.35     -4.78    1.57  NaCl
	O2(g)            -8.90    -11.79   -2.89  O2


Using mix 4.	

Mixture 4.	

	  0.000e+00 Solution 3	Solution after simulation 2.                           
	  1.000e+00 Solution 4	Solution after simulation 2.                           
	  0.000e+00 Solution 5	Solution after simulation 2.                           

-----------------------------Solution composition------------------------------

	Elements           Molality       Moles

	C                 2.309e-04   2.309e-04
	Ca                1.054e-04   1.054e-04
	Cl                7.588e-04   7.588e-04
	Na                7.356e-04   7.356e-04

----------------------------Description of solution----------------------------

                                       pH  =   6.970      Charge balance
                                       pe  =  11.652      Adjusted to redox equilibrium
       Specific Conductance (uS/cm, 25 oC) = 112
                          Density (g/cm3)  =   0.99709
                               Volume (L)  =   1.00299
                        Activity of water  =   1.000
                           Ionic strength  =   1.051e-03
                       Mass of water (kg)  =   1.000e+00
                 Total alkalinity (eq/kg)  =   1.876e-04
                       Total CO2 (mol/kg)  =   2.309e-04
                      Temperature (deg C)  =  25.00
                  Electrical balance (eq)  =   1.167e-12
 Percent error, 100*(Cat-|An|)/(Cat+|An|)  =   0.00
                               Iterations  =   3
                                  Total H  = 1.110126e+02
                                  Total O  = 5.550687e+01

----------------------------Distribution of species----------------------------

                                               Log       Log       Log    mole V
   Species          Molality    Activity  Molality  Activity     Gamma   cm3/mol

   H+              1.109e-07   1.071e-07    -6.955    -6.970    -0.015      0.00
   OH-             9.805e-08   9.452e-08    -7.009    -7.024    -0.016     -4.11
   H2O             5.551e+01   1.000e+00     1.744    -0.000     0.000     18.07
C(-4)         0.000e+00
   CH4             0.000e+00   0.000e+00  -128.951  -128.951     0.000     32.22
C(4)          2.309e-04
   HCO3-           1.871e-04   1.805e-04    -3.728    -3.744    -0.016     24.71
   CO2             4.344e-05   4.345e-05    -4.362    -4.362     0.000     29.09
   CaHCO3+         2.172e-07   2.096e-07    -6.663    -6.679    -0.016      9.67
   CO3-2           9.129e-08   7.904e-08    -7.040    -7.102    -0.063     -5.51
   NaHCO3          7.197e-08   7.199e-08    -7.143    -7.143     0.000      2.13
   CaCO3           1.208e-08   1.209e-08    -7.918    -7.918     0.000    -14.60
   NaCO3-          1.083e-09   1.044e-09    -8.965    -8.981    -0.016     -0.61
Ca            1.054e-04
   Ca+2            1.052e-04   9.103e-05    -3.978    -4.041    -0.063    -18.14
   CaHCO3+         2.172e-07   2.096e-07    -6.663    -6.679    -0.016      9.67
   CaCO3           1.208e-08   1.209e-08    -7.918    -7.918     0.000    -14.60
   CaOH+           1.463e-10   1.411e-10    -9.835    -9.851    -0.016     (0)  
Cl            7.588e-04
   Cl-             7.588e-04   7.315e-04    -3.120    -3.136    -0.016     18.08
H(0)          0.000e+00
   H2              0.000e+00   0.000e+00   -40.395   -40.395     0.000     28.61
Na            7.356e-04
   Na+             7.355e-04   7.093e-04    -3.133    -3.149    -0.016     -1.39
   NaHCO3          7.197e-08   7.199e-08    -7.143    -7.143     0.000      2.13
   NaCO3-          1.083e-09   1.044e-09    -8.965    -8.981    -0.016     -0.61
   NaOH            6.703e-21   6.704e-21   -20.174   -20.174     0.000     (0)  
O(0)          5.135e-12
   O2              2.568e-12   2.568e-12   -11.590   -11.590     0.000     30.40

------------------------------Saturation indices-------------------------------

	Phase               SI   log IAP   log K(298 K,   1 atm)

	Aragonite        -2.81    -11.14   -8.34  CaCO3
	Calcite          -2.66    -11.14   -8.48  CaCO3
	CH4(g)         -126.11   -128.95   -2.84  CH4
	CO2(g)           -2.90     -4.36   -1.46  CO2
	H2(g)           -37.29    -40.39   -3.10  H2
	H2O(g)           -1.50     -0.00    1.50  H2O
	Halite           -7.85     -6.28    1.57  NaCl
	O2(g)            -8.70    -11.59   -2.89  O2


Using mix 5.	

Mixture 5.	

	  0.000e+00 Solution 4	Solution after simulation 2.                           
	  1.000e+00 Solution 5	Solution after simulation 2.                           
	  0.000e+00 Solution 6	Solution after simulation 2.                           

-----------------------------Solution composition------------------------------

	Elements           Molality       Moles

	C                 2.350e-04   2.350e-04
	Ca                1.052e-04   1.052e-04
	Cl                1.112e-04   1.112e-04
	Na                9.187e-05   9.187e-05

----------------------------Description of solution----------------------------

                                       pH  =   6.979      Charge balance
                                       pe  =  11.684      Adjusted to redox equilibrium
       Specific Conductance (uS/cm, 25 oC) = 33
                          Density (g/cm3)  =   0.99706
                               Volume (L)  =   1.00298
                        Activity of water  =   1.000
                           Ionic strength  =   4.073e-04
                       Mass of water (kg)  =   1.000e+00
                 Total alkalinity (eq/kg)  =   1.912e-04
                       Total CO2 (mol/kg)  =   2.350e-04
                      Temperature (deg C)  =  25.00
                  Electrical balance (eq)  =  -1.260e-12
 Percent error, 100*(Cat-|An|)/(Cat+|An|)  =  -0.00
                               Iterations  =   4
                                  Total H  = 1.110126e+02
                                  Total O  = 5.550688e+01

----------------------------Distribution of species----------------------------

                                               Log       Log       Log    mole V
   Species          Molality    Activity  Molality  Activity     Gamma   cm3/mol

   H+              1.072e-07   1.048e-07    -6.970    -6.979    -0.010      0.00
   OH-             9.881e-08   9.655e-08    -7.005    -7.015    -0.010     -4.12
   H2O             5.551e+01   1.000e+00     1.744    -0.000     0.000     18.07
C(-4)         0.000e+00
   CH4             0.000e+00   0.000e+00  -129.274  -129.274     0.000     32.22
C(4)          2.350e-04
   HCO3-           1.907e-04   1.864e-04    -3.720    -3.729    -0.010     24.70
   CO2             4.394e-05   4.394e-05    -4.357    -4.357     0.000     29.09
   CaHCO3+         2.331e-07   2.279e-07    -6.632    -6.642    -0.010      9.66
   CO3-2           9.139e-08   8.340e-08    -7.039    -7.079    -0.040     -5.55
   CaCO3           1.342e-08   1.342e-08    -7.872    -7.872     0.000    -14.60
   NaHCO3          9.411e-09   9.412e-09    -8.026    -8.026     0.000      2.13
   NaCO3-          1.427e-10   1.394e-10    -9.846    -9.856    -0.010     -0.63
Ca            1.052e-04
   Ca+2            1.050e-04   9.580e-05    -3.979    -4.019    -0.040    -18.18
   CaHCO3+         2.331e-07   2.279e-07    -6.632    -6.642    -0.010      9.66
   CaCO3           1.342e-08   1.342e-08    -7.872    -7.872     0.000    -14.60
   CaOH+           1.552e-10   1.517e-10    -9.809    -9.819    -0.010     (0)  
Cl            1.112e-04
   Cl-             1.112e-04   1.086e-04    -3.954    -3.964    -0.010     18.06
H(0)          0.000e+00
   H2              0.000e+00   0.000e+00   -40.477   -40.477     0.000     28.61
Na            9.187e-05
   Na+             9.186e-05   8.977e-05    -4.037    -4.047    -0.010     -1.40
   NaHCO3          9.411e-09   9.412e-09    -8.026    -8.026     0.000      2.13
   NaCO3-          1.427e-10   1.394e-10    -9.846    -9.856    -0.010     -0.63
   NaOH            8.667e-22   8.667e-22   -21.062   -21.062     0.000     (0)  
O(0)          7.492e-12
   O2              3.746e-12   3.747e-12   -11.426   -11.426     0.000     30.40

------------------------------Saturation indices-------------------------------

	Phase               SI   log IAP   log K(298 K,   1 atm)

	Aragonite        -2.76    -11.10   -8.34  CaCO3
	Calcite          -2.62    -11.10   -8.48  CaCO3
	CH4(g)         -126.43   -129.27   -2.84  CH4
	CO2(g)           -2.90     -4.36   -1.46  CO2
	H2(g)           -37.38    -40.48   -3.10  H2
	H2O(g)           -1.50     -0.00    1.50  H2O
	Halite           -9.58     -8.01    1.57  NaCl
	O2(g)            -8.53    -11.43   -2.89  O2


Using mix 6.	

Mixture 6.	

	  0.000e+00 Solution 5	Solution after simulation 2.                           
	  1.000e+00 Solution 6	Solution after simulation 2.                           
	  0.000e+00 Solution 7	Solution after simulation 2.                           

-----------------------------Solution composition------------------------------

	Elements           Molality       Moles

	C                 2.409e-04   2.409e-04
	Ca                1.017e-04   1.017e-04
	Cl                1.469e-05   1.469e-05
	Na                8.324e-06   8.324e-06

----------------------------Description of solution----------------------------

                                       pH  =   6.993      Charge balance
                                       pe  =  11.698      Adjusted to redox equilibrium
       Specific Conductance (uS/cm, 25 oC) = 21
                          Density (g/cm3)  =   0.99706
                               Volume (L)  =   1.00298
                        Activity of water  =   1.000
                           Ionic strength  =   3.131e-04
                       Mass of water (kg)  =   1.000e+00
                 Total alkalinity (eq/kg)  =   1.971e-04
                       Total CO2 (mol/kg)  =   2.409e-04
                      Temperature (deg C)  =  25.00
                  Electrical balance (eq)  =  -1.288e-12
 Percent error, 100*(Cat-|An|)/(Cat+|An|)  =  -0.00
                               Iterations  =   4
                                  Total H  = 1.110126e+02
                                  Total O  = 5.550690e+01

----------------------------Distribution of species----------------------------

                                               Log       Log       Log    mole V
   Species          Molality    Activity  Molality  Activity     Gamma   cm3/mol

   H+              1.036e-07   1.016e-07    -6.985    -6.993    -0.009      0.00
   OH-             1.017e-07   9.966e-08    -6.993    -7.001    -0.009     -4.12
   H2O             5.551e+01   1.000e+00     1.744    -0.000     0.000     18.07
C(-4)         0.000e+00
   CH4             0.000e+00   0.000e+00  -129.496  -129.496     0.000     32.22
C(4)          2.409e-04
   HCO3-           1.966e-04   1.927e-04    -3.706    -3.715    -0.009     24.70
   CO2             4.399e-05   4.400e-05    -4.357    -4.357     0.000     29.09
   CaHCO3+         2.348e-07   2.301e-07    -6.629    -6.638    -0.009      9.66
   CO3-2           9.644e-08   8.897e-08    -7.016    -7.051    -0.035     -5.56
   CaCO3           1.399e-08   1.399e-08    -7.854    -7.854     0.000    -14.60
   NaHCO3          8.836e-10   8.837e-10    -9.054    -9.054     0.000      2.13
   NaCO3-          1.379e-11   1.351e-11   -10.860   -10.869    -0.009     -0.63
Ca            1.017e-04
   Ca+2            1.015e-04   9.360e-05    -3.994    -4.029    -0.035    -18.19
   CaHCO3+         2.348e-07   2.301e-07    -6.629    -6.638    -0.009      9.66
   CaCO3           1.399e-08   1.399e-08    -7.854    -7.854     0.000    -14.60
   CaOH+           1.561e-10   1.529e-10    -9.807    -9.815    -0.009     (0)  
Cl            1.469e-05
   Cl-             1.469e-05   1.439e-05    -4.833    -4.842    -0.009     18.06
H(0)          0.000e+00
   H2              0.000e+00   0.000e+00   -40.533   -40.532     0.000     28.61
Na            8.324e-06
   Na+             8.323e-06   8.156e-06    -5.080    -5.089    -0.009     -1.40
   NaHCO3          8.836e-10   8.837e-10    -9.054    -9.054     0.000      2.13
   NaCO3-          1.379e-11   1.351e-11   -10.860   -10.869    -0.009     -0.63
   NaOH            8.128e-23   8.128e-23   -22.090   -22.090     0.000     (0)  
O(0)          9.682e-12
   O2              4.841e-12   4.842e-12   -11.315   -11.315     0.000     30.40

------------------------------Saturation indices-------------------------------

	Phase               SI   log IAP   log K(298 K,   1 atm)

	Aragonite        -2.74    -11.08   -8.34  CaCO3
	Calcite          -2.60    -11.08   -8.48  CaCO3
	CH4(g)         -126.65   -129.50   -2.84  CH4
	CO2(g)           -2.90     -4.36   -1.46  CO2
	H2(g)           -37.43    -40.53   -3.10  H2
	H2O(g)           -1.50     -0.00    1.50  H2O
	Halite          -11.50     -9.93    1.57  NaCl
	O2(g)            -8.42    -11.32   -2.89  O2


Using mix 7.	

Mixture 7.	

	  0.000e+00 Solution 6	Solution after simulation 2.                           
	  1.000e+00 Solution 7	Solution after simulation 2.                           
	  0.000e+00 Solution 8	Solution after simulation 2.                           

-----------------------------Solution composition------------------------------

	Elements           Molality       Moles

	C                 2.434e-04   2.434e-04
	Ca                1.003e-04   1.003e-04
	Cl                1.664e-06   1.664e-06
	Na                5.839e-07   5.839e-07

----------------------------Description of solution----------------------------

                                       pH  =   6.999      Charge balance
                                       pe  =  11.715      Adjusted to redox equilibrium
       Specific Conductance (uS/cm, 25 oC) = 20
                          Density (g/cm3)  =   0.99706
                               Volume (L)  =   1.00298
                        Activity of water  =   1.000
                           Ionic strength  =   3.011e-04
                       Mass of water (kg)  =   1.000e+00
                 Total alkalinity (eq/kg)  =   1.995e-04
                       Total CO2 (mol/kg)  =   2.434e-04
                      Temperature (deg C)  =  25.00
                  Electrical balance (eq)  =  -1.289e-12
 Percent error, 100*(Cat-|An|)/(Cat+|An|)  =  -0.00
                               Iterations  =   4
                                  Total H  = 1.110126e+02
                                  Total O  = 5.550690e+01

----------------------------Distribution of species----------------------------

                                               Log       Log       Log    mole V
   Species          Molality    Activity  Molality  Activity     Gamma   cm3/mol

   OH-             1.030e-07   1.009e-07    -6.987    -6.996    -0.009     -4.12
   H+              1.022e-07   1.003e-07    -6.990    -6.999    -0.008      0.00
   H2O             5.551e+01   1.000e+00     1.744    -0.000     0.000     18.07
C(-4)         0.000e+00
   CH4             0.000e+00   0.000e+00  -129.680  -129.680     0.000     32.22
C(4)          2.434e-04
   HCO3-           1.990e-04   1.951e-04    -3.701    -3.710    -0.009     24.70
   CO2             4.399e-05   4.399e-05    -4.357    -4.357     0.000     29.09
   CaHCO3+         2.346e-07   2.301e-07    -6.630    -6.638    -0.009      9.66
   CO3-2           9.876e-08   9.125e-08    -7.005    -7.040    -0.034     -5.56
   CaCO3           1.417e-08   1.417e-08    -7.849    -7.849     0.000    -14.60
   NaHCO3          6.280e-11   6.280e-11   -10.202   -10.202     0.000      2.13
   NaCO3-          9.922e-13   9.726e-13   -12.003   -12.012    -0.009     -0.63
Ca            1.003e-04
   Ca+2            1.000e-04   9.242e-05    -4.000    -4.034    -0.034    -18.19
   CaHCO3+         2.346e-07   2.301e-07    -6.630    -6.638    -0.009      9.66
   CaCO3           1.417e-08   1.417e-08    -7.849    -7.849     0.000    -14.60
   CaOH+           1.560e-10   1.530e-10    -9.807    -9.815    -0.009     (0)  
Cl            1.664e-06
   Cl-             1.664e-06   1.631e-06    -5.779    -5.787    -0.009     18.06
H(0)          0.000e+00
   H2              0.000e+00   0.000e+00   -40.578   -40.578     0.000     28.61
Na            5.839e-07
   Na+             5.838e-07   5.724e-07    -6.234    -6.242    -0.009     -1.40
   NaHCO3          6.280e-11   6.280e-11   -10.202   -10.202     0.000      2.13
   NaCO3-          9.922e-13   9.726e-13   -12.003   -12.012    -0.009     -0.63
   NaOH            5.777e-24   5.777e-24   -23.238   -23.238     0.000     (0)  
O(0)          1.196e-11
   O2              5.982e-12   5.982e-12   -11.223   -11.223     0.000     30.40

------------------------------Saturation indices-------------------------------

	Phase               SI   log IAP   log K(298 K,   1 atm)

	Aragonite        -2.74    -11.07   -8.34  CaCO3
	Calcite          -2.59    -11.07   -8.48  CaCO3
	CH4(g)         -126.84   -129.68   -2.84  CH4
	CO2(g)           -2.90     -4.36   -1.46  CO2
	H2(g)           -37.48    -40.58   -3.10  H2
	H2O(g)           -1.50     -0.00    1.50  H2O
	Halite          -13.60    -12.03    1.57  NaCl
	O2(g)            -8.33    -11.22   -2.89  O2


Using mix 8.	

Mixture 8.	

	  0.000e+00 Solution 7	Solution after simulation 2.                           
	  1.000e+00 Solution 8	Solution after simulation 2.                           
	  0.000e+00 Solution 9	Solution after simulation 2.                           

-----------------------------Solution composition------------------------------

	Elements           Molality       Moles

	C                 2.438e-04   2.438e-04
	Ca                1.000e-04   1.000e-04
	Cl                1.564e-07   1.564e-07
	Na                3.340e-08   3.340e-08

----------------------------Description of solution----------------------------

                                       pH  =   7.000      Charge balance
                                       pe  =  11.716      Adjusted to redox equilibrium
       Specific Conductance (uS/cm, 25 oC) = 20
                          Density (g/cm3)  =   0.99706
                               Volume (L)  =   1.00298
                        Activity of water  =   1.000
                           Ionic strength  =   2.998e-04
                       Mass of water (kg)  =   1.000e+00
                 Total alkalinity (eq/kg)  =   1.999e-04
                       Total CO2 (mol/kg)  =   2.438e-04
                      Temperature (deg C)  =  25.00
                  Electrical balance (eq)  =  -4.276e-12
 Percent error, 100*(Cat-|An|)/(Cat+|An|)  =  -0.00
                               Iterations  =   4
                                  Total H  = 1.110126e+02
                                  Total O  = 5.550690e+01

----------------------------Distribution of species----------------------------

                                               Log       Log       Log    mole V
   Species          Molality    Activity  Molality  Activity     Gamma   cm3/mol

   OH-             1.032e-07   1.012e-07    -6.986    -6.995    -0.009     -4.12
   H+              1.020e-07   1.000e-07    -6.991    -7.000    -0.008      0.00
   H2O             5.551e+01   1.000e+00     1.744    -0.000     0.000     18.07
C(-4)         0.000e+00
   CH4             0.000e+00   0.000e+00  -129.694  -129.694     0.000     32.22
C(4)          2.438e-04
   HCO3-           1.995e-04   1.956e-04    -3.700    -3.709    -0.009     24.70
   CO2             4.398e-05   4.399e-05    -4.357    -4.357     0.000     29.09
   CaHCO3+         2.346e-07   2.301e-07    -6.630    -6.638    -0.009      9.66
   CO3-2           9.922e-08   9.169e-08    -7.003    -7.038    -0.034     -5.56
   CaCO3           1.420e-08   1.420e-08    -7.848    -7.848     0.000    -14.60
   NaHCO3          3.601e-12   3.601e-12   -11.444   -11.444     0.000      2.13
   NaCO3-          5.703e-14   5.591e-14   -13.244   -13.253    -0.009     -0.63
Ca            1.000e-04
   Ca+2            9.978e-05   9.220e-05    -4.001    -4.035    -0.034    -18.19
   CaHCO3+         2.346e-07   2.301e-07    -6.630    -6.638    -0.009      9.66
   CaCO3           1.420e-08   1.420e-08    -7.848    -7.848     0.000    -14.60
   CaOH+           1.560e-10   1.530e-10    -9.807    -9.815    -0.009     (0)  
Cl            1.564e-07
   Cl-             1.564e-07   1.533e-07    -6.806    -6.814    -0.009     18.06
H(0)          0.000e+00
   H2              0.000e+00   0.000e+00   -40.582   -40.582     0.000     28.61
Na            3.340e-08
   Na+             3.340e-08   3.274e-08    -7.476    -7.485    -0.009     -1.40
   NaHCO3          3.601e-12   3.601e-12   -11.444   -11.444     0.000      2.13
   NaCO3-          5.703e-14   5.591e-14   -13.244   -13.253    -0.009     -0.63
   NaOH            3.313e-25   3.313e-25   -24.480   -24.480     0.000     (0)  
O(0)          1.216e-11
   O2              6.078e-12   6.078e-12   -11.216   -11.216     0.000     30.40

------------------------------Saturation indices-------------------------------

	Phase               SI   log IAP   log K(298 K,   1 atm)

	Aragonite        -2.74    -11.07   -8.34  CaCO3
	Calcite          -2.59    -11.07   -8.48  CaCO3
	CH4(g)         -126.85   -129.69   -2.84  CH4
	CO2(g)           -2.90     -4.36   -1.46  CO2
	H2(g)           -37.48    -40.58   -3.10  H2
	H2O(g)           -1.50     -0.00    1.50  H2O
	Halite          -15.87    -14.30    1.57  NaCl
	O2(g)            -8.32    -11.22   -2.89  O2


Using mix 9.	

Mixture 9.	

	  0.000e+00 Solution 8	Solution after simulation 2.                           
	  1.000e+00 Solution 9	Solution after simulation 2.                           
	  0.000e+00 Solution 10	Solution after simulation 2.                           

-----------------------------Solution composition------------------------------

	Elements           Molality       Moles

	C                 2.439e-04   2.439e-04
	Ca                1.000e-04   1.000e-04
	Cl                1.219e-08   1.219e-08
	Na                1.585e-09   1.585e-09

----------------------------Description of solution----------------------------

                                       pH  =   7.000      Charge balance
                                       pe  =  11.644      Adjusted to redox equilibrium
       Specific Conductance (uS/cm, 25 oC) = 20
                          Density (g/cm3)  =   0.99706
                               Volume (L)  =   1.00298
                        Activity of water  =   1.000
                           Ionic strength  =   2.997e-04
                       Mass of water (kg)  =   1.000e+00
                 Total alkalinity (eq/kg)  =   2.000e-04
                       Total CO2 (mol/kg)  =   2.439e-04
                      Temperature (deg C)  =  25.00
                  Electrical balance (eq)  =  -1.442e-12
 Percent error, 100*(Cat-|An|)/(Cat+|An|)  =  -0.00
                               Iterations  =   4
                                  Total H  = 1.110126e+02
                                  Total O  = 5.550690e+01

----------------------------Distribution of species----------------------------

                                               Log       Log       Log    mole V
   Species          Molality    Activity  Molality  Activity     Gamma   cm3/mol

   OH-             1.033e-07   1.012e-07    -6.986    -6.995    -0.009     -4.12
   H+              1.020e-07   1.000e-07    -6.992    -7.000    -0.008      0.00
   H2O             5.551e+01   1.000e+00     1.744    -0.000     0.000     18.07
C(-4)         0.000e+00
   CH4             0.000e+00   0.000e+00  -129.122  -129.121     0.000     32.22
C(4)          2.439e-04
   HCO3-           1.995e-04   1.956e-04    -3.700    -3.709    -0.009     24.70
   CO2             4.398e-05   4.399e-05    -4.357    -4.357     0.000     29.09
   CaHCO3+         2.346e-07   2.301e-07    -6.630    -6.638    -0.009      9.66
   CO3-2           9.928e-08   9.174e-08    -7.003    -7.037    -0.034     -5.56
   CaCO3           1.421e-08   1.421e-08    -7.848    -7.848     0.000    -14.60
   NaHCO3          1.710e-13   1.710e-13   -12.767   -12.767     0.000      2.13
   NaCO3-          2.708e-15   2.655e-15   -14.567   -14.576    -0.009     -0.63
Ca            1.000e-04
   Ca+2            9.975e-05   9.218e-05    -4.001    -4.035    -0.034    -18.19
   CaHCO3+         2.346e-07   2.301e-07    -6.630    -6.638    -0.009      9.66
   CaCO3           1.421e-08   1.421e-08    -7.848    -7.848     0.000    -14.60
   CaOH+           1.560e-10   1.530e-10    -9.807    -9.815    -0.009     (0)  
Cl            1.219e-08
   Cl-             1.219e-08   1.194e-08    -7.914    -7.923    -0.009     18.06
H(0)          0.000e+00
   H2              0.000e+00   0.000e+00   -40.439   -40.439     0.000     28.61
Na            1.585e-09
   Na+             1.585e-09   1.554e-09    -8.800    -8.809    -0.009     -1.40
   NaHCO3          1.710e-13   1.710e-13   -12.767   -12.767     0.000      2.13
   NaCO3-          2.708e-15   2.655e-15   -14.567   -14.576    -0.009     -0.63
   NaOH            1.573e-26   1.573e-26   -25.803   -25.803     0.000     (0)  
O(0)          6.288e-12
   O2              3.144e-12   3.144e-12   -11.502   -11.502     0.000     30.40

------------------------------Saturation indices-------------------------------

	Phase               SI   log IAP   log K(298 K,   1 atm)

	Aragonite        -2.74    -11.07   -8.34  CaCO3
	Calcite          -2.59    -11.07   -8.48  CaCO3
	CH4(g)         -126.28   -129.12   -2.84  CH4
[...]
	Ca                1.057e-04   5.404e-05
	Cl                3.903e-07   1.996e-07
	Na                4.079e-08   2.086e-08

----------------------------Description of solution----------------------------

                                       pH  =   7.271      Charge balance
                                       pe  =  -4.110      Adjusted to redox equilibrium
       Specific Conductance (uS/cm, 25 oC) = 21
                          Density (g/cm3)  =   0.99706
                               Volume (L)  =   0.51289
                        Activity of water  =   1.000
                           Ionic strength  =   3.168e-04
                       Mass of water (kg)  =   5.114e-01
                 Total alkalinity (eq/kg)  =   2.111e-04
                       Total CO2 (mol/kg)  =   2.355e-04
                      Temperature (deg C)  =  25.00
                  Electrical balance (eq)  =  -4.398e-08
 Percent error, 100*(Cat-|An|)/(Cat+|An|)  =  -0.02
                               Iterations  =   1
                                  Total H  = 5.676830e+01
                                  Total O  = 2.838444e+01

----------------------------Distribution of species----------------------------

                                               Log       Log       Log    mole V
   Species          Molality    Activity  Molality  Activity     Gamma   cm3/mol

   OH-             1.929e-07   1.890e-07    -6.715    -6.724    -0.009     -4.12
   H+              5.463e-08   5.355e-08    -7.263    -7.271    -0.009      0.00
   H2O             1.085e+02   1.000e+00     2.035    -0.000     0.000     18.07
C(-4)         3.118e-06
   CH4             3.118e-06   3.118e-06    -5.506    -5.506     0.000     32.22
C(4)          2.355e-04
   HCO3-           2.102e-04   2.060e-04    -3.677    -3.686    -0.009     24.70
   CO2             2.480e-05   2.481e-05    -4.605    -4.605     0.000     29.09
   CaHCO3+         2.606e-07   2.554e-07    -6.584    -6.593    -0.009      9.66
   CO3-2           1.956e-07   1.804e-07    -6.709    -6.744    -0.035     -5.56
   CaCO3           2.945e-08   2.945e-08    -7.531    -7.531     0.000    -14.60
   NaHCO3          4.629e-12   4.630e-12   -11.334   -11.334     0.000      2.13
   NaCO3-          1.370e-13   1.343e-13   -12.863   -12.872    -0.009     -0.63
Ca            1.057e-04
   Ca+2            1.054e-04   9.718e-05    -3.977    -4.012    -0.035    -18.19
   CaHCO3+         2.606e-07   2.554e-07    -6.584    -6.593    -0.009      9.66
   CaCO3           2.945e-08   2.945e-08    -7.531    -7.531     0.000    -14.60
   CaOH+           3.074e-10   3.011e-10    -9.512    -9.521    -0.009     (0)  
Cl            3.903e-07
   Cl-             3.903e-07   3.824e-07    -6.409    -6.418    -0.009     18.06
H(0)          6.734e-10
   H2              3.367e-10   3.367e-10    -9.473    -9.473     0.000     28.61
Na            4.079e-08
   Na+             4.078e-08   3.996e-08    -7.390    -7.398    -0.009     -1.40
   NaHCO3          4.629e-12   4.630e-12   -11.334   -11.334     0.000      2.13
   NaCO3-          1.370e-13   1.343e-13   -12.863   -12.872    -0.009     -0.63
   NaOH            7.552e-25   7.553e-25   -24.122   -24.122     0.000     (0)  
O(0)          0.000e+00
   O2              0.000e+00   0.000e+00   -73.435   -73.435     0.000     30.40

------------------------------Saturation indices-------------------------------

	Phase               SI   log IAP   log K(298 K,   1 atm)

	Aragonite        -2.42    -10.76   -8.34  CaCO3
	Calcite          -2.28    -10.76   -8.48  CaCO3
	CH4(g)           -2.66     -5.51   -2.84  CH4
	CO2(g)           -3.14     -4.61   -1.46  CO2
	H2(g)            -6.37     -9.47   -3.10  H2
	H2O(g)           -1.50     -0.00    1.50  H2O
	Halite          -15.39    -13.82    1.57  NaCl
	O2(g)           -70.54    -73.43   -2.89  O2


Using mix 8.	
Using surface 8.	

Mixture 8.	

	  0.000e+00 Solution 7	Solution after simulation 4.                           
	  1.000e+00 Solution 8	Solution after simulation 4.                           
	  0.000e+00 Solution 9	Solution after simulation 4.                           

------------------------------Surface composition------------------------------

Su            
	 -7.582e-09  Surface + diffuse layer charge, eq
	 -1.000e+00  Surface charge, eq
	 -2.894e+00  sigma, C/m**2
	 -4.086e-01  psi, V
	  1.590e+01  -F*psi/RT
	  8.069e+06  exp(-F*psi/RT)
	  3.334e+04  specific area, m**2/g
	  3.334e+04  m**2 for   1.000e+00 g

	Water in diffuse layer: 4.983e-01 kg, 100.0% of total DDL-water.
	Radius of total pore:   5.997e-08 m; of free pore: 4.247e-08 m.

	Total moles in diffuse layer (excluding water), Donnan calculation 

	Element       	     Moles
	C             	  3.3643e-05
	Ca            	  5.0000e-01
	Cl            	  1.8820e-10
	H             	  1.8086e-05
	Na            	  1.0870e-07
	O             	  7.9903e-05

Su            
	  1.000e+00  moles
	                                   Mole                     Log
	Species               Moles    Fraction    Molality    Molality

	Su-               1.000e+00       1.000   1.994e+00       0.300

-----------------------------Solution composition------------------------------

	Elements           Molality       Moles

	C                 2.429e-04   1.218e-04
	Ca                1.007e-04   5.049e-05
	Cl                3.775e-08   1.893e-08
	Na                2.183e-09   1.094e-09

----------------------------Description of solution----------------------------

                                       pH  =   7.028      Charge balance
                                       pe  =  -3.699      Adjusted to redox equilibrium
       Specific Conductance (uS/cm, 25 oC) = 20
                          Density (g/cm3)  =   0.99706
                               Volume (L)  =   0.50290
                        Activity of water  =   1.000
                           Ionic strength  =   3.017e-04
                       Mass of water (kg)  =   5.014e-01
                 Total alkalinity (eq/kg)  =   2.013e-04
                       Total CO2 (mol/kg)  =   2.427e-04
                      Temperature (deg C)  =  25.00
                  Electrical balance (eq)  =   2.575e-08
 Percent error, 100*(Cat-|An|)/(Cat+|An|)  =   0.01
                               Iterations  =   1
                                  Total H  = 5.566232e+01
                                  Total O  = 2.783145e+01

----------------------------Distribution of species----------------------------

                                               Log       Log       Log    mole V
   Species          Molality    Activity  Molality  Activity     Gamma   cm3/mol

   OH-             1.101e-07   1.080e-07    -6.958    -6.967    -0.009     -4.12
   H+              9.560e-08   9.376e-08    -7.020    -7.028    -0.008      0.00
   H2O             1.107e+02   1.000e+00     2.044    -0.000     0.000     18.07
C(-4)         2.391e-07
   CH4             2.391e-07   2.391e-07    -6.621    -6.621     0.000     32.22
C(4)          2.427e-04
   HCO3-           2.008e-04   1.969e-04    -3.697    -3.706    -0.009     24.70
   CO2             4.150e-05   4.150e-05    -4.382    -4.382     0.000     29.09
   CaHCO3+         2.377e-07   2.331e-07    -6.624    -6.633    -0.009      9.66
   CO3-2           1.066e-07   9.847e-08    -6.972    -7.007    -0.034     -5.56
   CaCO3           1.535e-08   1.535e-08    -7.814    -7.814     0.000    -14.60
   NaHCO3          2.368e-13   2.369e-13   -12.626   -12.626     0.000      2.13
   NaCO3-          4.002e-15   3.923e-15   -14.398   -14.406    -0.009     -0.63
Ca            1.007e-04
   Ca+2            1.004e-04   9.279e-05    -3.998    -4.033    -0.034    -18.19
   CaHCO3+         2.377e-07   2.331e-07    -6.624    -6.633    -0.009      9.66
   CaCO3           1.535e-08   1.535e-08    -7.814    -7.814     0.000    -14.60
   CaOH+           1.675e-10   1.642e-10    -9.776    -9.785    -0.009     (0)  
Cl            3.775e-08
   Cl-             3.775e-08   3.701e-08    -7.423    -7.432    -0.009     18.06
H(0)          3.116e-10
   H2              1.558e-10   1.558e-10    -9.807    -9.807     0.000     28.61
Na            2.183e-09
   Na+             2.183e-09   2.140e-09    -8.661    -8.670    -0.009     -1.40
   NaHCO3          2.368e-13   2.369e-13   -12.626   -12.626     0.000      2.13
   NaCO3-          4.002e-15   3.923e-15   -14.398   -14.406    -0.009     -0.63
   NaOH            2.310e-26   2.310e-26   -25.636   -25.636     0.000     (0)  
O(0)          0.000e+00
   O2              0.000e+00   0.000e+00   -72.765   -72.765     0.000     30.40

------------------------------Saturation indices-------------------------------

	Phase               SI   log IAP   log K(298 K,   1 atm)

	Aragonite        -2.70    -11.04   -8.34  CaCO3
	Calcite          -2.56    -11.04   -8.48  CaCO3
	CH4(g)           -3.78     -6.62   -2.84  CH4
	CO2(g)           -2.92     -4.38   -1.46  CO2
	H2(g)            -6.71     -9.81   -3.10  H2
	H2O(g)           -1.50     -0.00    1.50  H2O
	Halite          -17.67    -16.10    1.57  NaCl
	O2(g)           -69.87    -72.77   -2.89  O2


Using mix 9.	
Using surface 9.	

Mixture 9.	

	  0.000e+00 Solution 8	Solution after simulation 4.                           
	  1.000e+00 Solution 9	Solution after simulation 4.                           
	  0.000e+00 Solution 10	Solution after simulation 4.                           

------------------------------Surface composition------------------------------

Su            
	  5.654e-09  Surface + diffuse layer charge, eq
	 -1.000e+00  Surface charge, eq
	 -2.894e+00  sigma, C/m**2
	 -4.087e-01  psi, V
	  1.591e+01  -F*psi/RT
	  8.116e+06  exp(-F*psi/RT)
	  3.334e+04  specific area, m**2/g
	  3.334e+04  m**2 for   1.000e+00 g

	Water in diffuse layer: 4.995e-01 kg, 100.0% of total DDL-water.
	Radius of total pore:   5.997e-08 m; of free pore: 4.242e-08 m.

	Total moles in diffuse layer (excluding water), Donnan calculation 

	Element       	     Moles
	C             	  3.4597e-05
	Ca            	  5.0000e-01
	Cl            	  1.5069e-11
	H             	  1.7853e-05
	Na            	  4.9341e-09
	O             	  8.1944e-05

Su            
	  1.000e+00  moles
	                                   Mole                     Log
	Species               Moles    Fraction    Molality    Molality

	Su-               1.000e+00       1.000   1.999e+00       0.301

-----------------------------Solution composition------------------------------

	Elements           Molality       Moles

	C                 2.437e-04   1.219e-04
	Ca                1.001e-04   5.007e-05
	Cl                3.021e-09   1.511e-09
	Na                9.868e-11   4.936e-11

----------------------------Description of solution----------------------------

                                       pH  =   7.003      Charge balance
                                       pe  =  -3.523      Adjusted to redox equilibrium
       Specific Conductance (uS/cm, 25 oC) = 20
                          Density (g/cm3)  =   0.99706
                               Volume (L)  =   0.50169
                        Activity of water  =   1.000
                           Ionic strength  =   3.000e-04
                       Mass of water (kg)  =   5.002e-01
                 Total alkalinity (eq/kg)  =   2.001e-04
                       Total CO2 (mol/kg)  =   2.437e-04
                      Temperature (deg C)  =  25.00
                  Electrical balance (eq)  =   4.393e-08
 Percent error, 100*(Cat-|An|)/(Cat+|An|)  =   0.02
                               Iterations  =   0
                                  Total H  = 5.552816e+01
                                  Total O  = 2.776437e+01

----------------------------Distribution of species----------------------------

                                               Log       Log       Log    mole V
   Species          Molality    Activity  Molality  Activity     Gamma   cm3/mol

   OH-             1.040e-07   1.019e-07    -6.983    -6.992    -0.009     -4.12
   H+              1.013e-07   9.932e-08    -6.995    -7.003    -0.008      0.00
   H2O             1.109e+02   1.000e+00     2.045    -0.000     0.000     18.07
C(-4)         1.563e-08
   CH4             1.563e-08   1.563e-08    -7.806    -7.806     0.000     32.22
C(4)          2.437e-04
   HCO3-           1.997e-04   1.958e-04    -3.700    -3.708    -0.009     24.70
   CO2             4.371e-05   4.371e-05    -4.359    -4.359     0.000     29.09
   CaHCO3+         2.350e-07   2.305e-07    -6.629    -6.637    -0.009      9.66
   CO3-2           1.000e-07   9.244e-08    -7.000    -7.034    -0.034     -5.56
   CaCO3           1.433e-08   1.433e-08    -7.844    -7.844     0.000    -14.60
   NaHCO3          1.065e-14   1.065e-14   -13.973   -13.973     0.000      2.13
   NaCO3-          1.698e-16   1.665e-16   -15.770   -15.779    -0.009     -0.63
Ca            1.001e-04
   Ca+2            9.986e-05   9.228e-05    -4.001    -4.035    -0.034    -18.19
   CaHCO3+         2.350e-07   2.305e-07    -6.629    -6.637    -0.009      9.66
   CaCO3           1.433e-08   1.433e-08    -7.844    -7.844     0.000    -14.60
   CaOH+           1.573e-10   1.542e-10    -9.803    -9.812    -0.009     (0)  
Cl            3.021e-09
   Cl-             3.021e-09   2.961e-09    -8.520    -8.529    -0.009     18.06
H(0)          1.555e-10
   H2              7.776e-11   7.776e-11   -10.109   -10.109     0.000     28.61
Na            9.868e-11
   Na+             9.867e-11   9.673e-11   -10.006   -10.014    -0.009     -1.40
   NaHCO3          1.065e-14   1.065e-14   -13.973   -13.973     0.000      2.13
   NaCO3-          1.698e-16   1.665e-16   -15.770   -15.779    -0.009     -0.63
   NaOH            9.857e-28   9.858e-28   -27.006   -27.006     0.000     (0)  
O(0)          0.000e+00
   O2              0.000e+00   0.000e+00   -72.162   -72.162     0.000     30.40

------------------------------Saturation indices-------------------------------

	Phase               SI   log IAP   log K(298 K,   1 atm)

	Aragonite        -2.73    -11.07   -8.34  CaCO3
	Calcite          -2.59    -11.07   -8.48  CaCO3
	CH4(g)           -4.96     -7.81   -2.84  CH4
	CO2(g)           -2.90     -4.36   -1.46  CO2
	H2(g)            -7.01    -10.11   -3.10  H2
	H2O(g)           -1.50     -0.00    1.50  H2O
	Halite          -20.11    -18.54    1.57  NaCl
	O2(g)           -69.27    -72.16   -2.89  O2


Using mix 10.	
Using surface 10.	

Mixture 10.	

	  0.000e+00 Solution 9	Solution after simulation 4.                           
	  1.000e+00 Solution 10	Solution after simulation 4.                           
	  0.000e+00 Solution 11	                                                       

------------------------------Surface composition------------------------------

Su            
	  5.271e-13  Surface + diffuse layer charge, eq
	 -1.000e+00  Surface charge, eq
	 -2.894e+00  sigma, C/m**2
	 -4.087e-01  psi, V
	  1.591e+01  -F*psi/RT
	  8.122e+06  exp(-F*psi/RT)
	  3.334e+04  specific area, m**2/g
	  3.334e+04  m**2 for   1.000e+00 g

	Water in diffuse layer: 4.996e-01 kg, 100.0% of total DDL-water.
	Radius of total pore:   5.997e-08 m; of free pore: 4.242e-08 m.

	Total moles in diffuse layer (excluding water), Donnan calculation 

	Element       	     Moles
	C             	  3.4706e-05
	Ca            	  5.0000e-01
	Cl            	  1.0648e-12
	H             	  1.7850e-05
	Na            	  1.9106e-10
	O             	  8.2166e-05

Su            
	  1.000e+00  moles
	                                   Mole                     Log
	Species               Moles    Fraction    Molality    Molality

	Su-               1.000e+00       1.000   2.000e+00       0.301

-----------------------------Solution composition------------------------------

	Elements           Molality       Moles

	C                 2.438e-04   1.219e-04
	Ca                1.000e-04   5.003e-05
	Cl                2.134e-10   1.067e-10
	Na                3.819e-12   1.910e-12

----------------------------Description of solution----------------------------

                                       pH  =   7.000      Charge balance
                                       pe  =  -3.417      Adjusted to redox equilibrium
       Specific Conductance (uS/cm, 25 oC) = 20
                          Density (g/cm3)  =   0.99706
                               Volume (L)  =   0.50155
                        Activity of water  =   1.000
                           Ionic strength  =   2.998e-04
                       Mass of water (kg)  =   5.001e-01
                 Total alkalinity (eq/kg)  =   2.000e-04
                       Total CO2 (mol/kg)  =   2.438e-04
                      Temperature (deg C)  =  25.00
                  Electrical balance (eq)  =   3.464e-08
 Percent error, 100*(Cat-|An|)/(Cat+|An|)  =   0.02
                               Iterations  =   3
                                  Total H  = 5.551316e+01
                                  Total O  = 2.775687e+01

----------------------------Distribution of species----------------------------

                                               Log       Log       Log    mole V
   Species          Molality    Activity  Molality  Activity     Gamma   cm3/mol

   OH-             1.033e-07   1.013e-07    -6.986    -6.994    -0.009     -4.12
   H+              1.019e-07   9.991e-08    -6.992    -7.000    -0.008      0.00
   H2O             1.110e+02   1.000e+00     2.045    -0.000     0.000     18.07
C(-4)         2.320e-09
   CH4             2.320e-09   2.320e-09    -8.634    -8.634     0.000     32.22
C(4)          2.438e-04
   HCO3-           1.995e-04   1.957e-04    -3.700    -3.709    -0.009     24.70
   CO2             4.395e-05   4.395e-05    -4.357    -4.357     0.000     29.09
   CaHCO3+         2.348e-07   2.302e-07    -6.629    -6.638    -0.009      9.66
   CO3-2           9.937e-08   9.183e-08    -7.003    -7.037    -0.034     -5.56
   CaCO3           1.423e-08   1.423e-08    -7.847    -7.847     0.000    -14.60
   NaHCO3          4.119e-16   4.119e-16   -15.385   -15.385     0.000      2.13
   NaCO3-          6.531e-18   6.402e-18   -17.185   -17.194    -0.009     -0.63
Ca            1.000e-04
   Ca+2            9.979e-05   9.221e-05    -4.001    -4.035    -0.034    -18.19
   CaHCO3+         2.348e-07   2.302e-07    -6.629    -6.638    -0.009      9.66
   CaCO3           1.423e-08   1.423e-08    -7.847    -7.847     0.000    -14.60
   CaOH+           1.562e-10   1.532e-10    -9.806    -9.815    -0.009     (0)  
Cl            2.134e-10
   Cl-             2.134e-10   2.092e-10    -9.671    -9.679    -0.009     18.06
H(0)          9.640e-11
   H2              4.820e-11   4.820e-11   -10.317   -10.317     0.000     28.61
Na            3.819e-12
   Na+             3.819e-12   3.744e-12   -11.418   -11.427    -0.009     -1.40
   NaHCO3          4.119e-16   4.119e-16   -15.385   -15.385     0.000      2.13
   NaCO3-          6.531e-18   6.402e-18   -17.185   -17.194    -0.009     -0.63
   NaOH            3.792e-29   3.793e-29   -28.421   -28.421     0.000     (0)  
O(0)          0.000e+00
   O2              0.000e+00   0.000e+00   -71.746   -71.746     0.000     30.40

------------------------------Saturation indices-------------------------------

	Phase               SI   log IAP   log K(298 K,   1 atm)

	Aragonite        -2.74    -11.07   -8.34  CaCO3
	Calcite          -2.59    -11.07   -8.48  CaCO3
	CH4(g)           -5.79     -8.63   -2.84  CH4
	CO2(g)           -2.90     -4.36   -1.46  CO2
	H2(g)            -7.22    -10.32   -3.10  H2
	H2O(g)           -1.50     -0.00    1.50  H2O
	Halite          -22.68    -21.11    1.57  NaCl
	O2(g)           -68.85    -71.75   -2.89  O2


------------------
End of simulation.
------------------

------------------------------------
Reading input data for simulation 5.
------------------------------------

------------------------------
End of Run after 0.79 Seconds.
------------------------------

