WARNING: Database file from DATABASE keyword is used; command line argument ignored.
   Input file: debye1
  Output file: debye1.out
Database file: ../database/phreeqc.dat

------------------
Reading data base.
------------------

	SOLUTION_MASTER_SPECIES
	SOLUTION_SPECIES
	PHASES
	EXCHANGE_MASTER_SPECIES
	EXCHANGE_SPECIES
	SURFACE_MASTER_SPECIES
	SURFACE_SPECIES
	RATES
	END
------------------------------------
Reading input data for simulation 1.
------------------------------------

	DATABASE ../database/phreeqc.dat
	SELECTED_OUTPUT 101
	    file                 debye1_101.sel
	USER_PUNCH 101
	    headings Mu SC
	    start
	10 PUNCH STR_F$(MU, 20, 12)
	20 PUNCH STR_F$(SC, 20, 10)
	    end
	SOLUTION 0
	 Na 100
	 Cl 100 charge
	SOLUTION 1-10
	 Ca 0.1
	 C(4) 1 charge
	 water 1
	SURFACE_MASTER_SPECIES
	 Su Su-
	SURFACE_SPECIES
	 Su- = Su-
	 log_k 0
	END
-------------------------------------------
Beginning of initial solution calculations.
-------------------------------------------

Initial solution 0.	

-----------------------------Solution composition------------------------------

	Elements           Molality       Moles

	Cl                1.000e-01   1.000e-01  Charge balance
	Na                1.000e-01   1.000e-01

----------------------------Description of solution----------------------------

                                       pH  =   7.000    
                                       pe  =   4.000    
      Specific Conductance (µS/cm,  25°C)  = 10646
                          Density (g/cm³)  =   1.00115
                               Volume (L)  =   1.00469
                        Viscosity (mPa s)  =   0.89854
                        Activity of water  =   0.997
                 Ionic strength (mol/kgw)  =   1.000e-01
                       Mass of water (kg)  =   1.000e+00
                 Total alkalinity (eq/kg)  =   8.896e-09
                         Temperature (°C)  =  25.00
                  Electrical balance (eq)  =  -1.176e-15
 Percent error, 100*(Cat-|An|)/(Cat+|An|)  =  -0.00
                               Iterations  =   9
                                  Total H  = 1.110124e+02
                                  Total O  = 5.550622e+01

----------------------------Distribution of species----------------------------

                                               Log       Log       Log    mole V
   Species          Molality    Activity  Molality  Activity     Gamma   cm³/mol

   OH-             1.324e-07   1.009e-07    -6.878    -6.996    -0.118     -3.73
   H+              1.212e-07   1.000e-07    -6.917    -7.000    -0.083      0.00
   H2O             5.551e+01   9.966e-01     1.744    -0.001     0.000     18.07
Cl            1.000e-01
   Cl-             1.000e-01   7.666e-02    -1.000    -1.115    -0.115     18.34
   HCl             2.394e-09   2.641e-09    -8.621    -8.578     0.043     (0)  
H(0)          1.384e-25
   H2              6.918e-26   7.079e-26   -25.160   -25.150     0.010     28.61
Na            1.000e-01
   Na+             1.000e-01   7.851e-02    -1.000    -1.105    -0.105     -1.09
   NaOH            7.739e-19   7.919e-19   -18.111   -18.101     0.010     (0)  
O(0)          0.000e+00
   O2              0.000e+00   0.000e+00   -42.093   -42.083     0.010     30.40

------------------------------Saturation indices-------------------------------

  Phase               SI** log IAP   log K(298 K,   1 atm)

  H2(g)           -22.05    -25.15   -3.10  H2
  H2O(g)           -1.50     -0.00    1.50  H2O
  Halite           -3.79     -2.22    1.57  NaCl
  O2(g)           -39.19    -42.08   -2.89  O2

**For a gas, SI = log10(fugacity). Fugacity = pressure * phi / 1 atm.
  For ideal gases, phi = 1.

Initial solution 1.	

-----------------------------Solution composition------------------------------

	Elements           Molality       Moles

	C(4)              2.439e-04   2.439e-04  Charge balance
	Ca                1.000e-04   1.000e-04

----------------------------Description of solution----------------------------

                                       pH  =   7.000    
                                       pe  =   4.000    
      Specific Conductance (µS/cm,  25°C)  = 20
                          Density (g/cm³)  =   0.99706
                               Volume (L)  =   1.00297
                        Viscosity (mPa s)  =   0.89032
                        Activity of water  =   1.000
                 Ionic strength (mol/kgw)  =   2.997e-04
                       Mass of water (kg)  =   1.000e+00
                 Total alkalinity (eq/kg)  =   2.000e-04
                       Total CO2 (mol/kg)  =   2.439e-04
                         Temperature (°C)  =  25.00
                  Electrical balance (eq)  =  -1.302e-12
 Percent error, 100*(Cat-|An|)/(Cat+|An|)  =  -0.00
                               Iterations  =   5 (14 overall)
                                  Total H  = 1.110126e+02
                                  Total O  = 5.550690e+01

----------------------------Distribution of species----------------------------

                                               Log       Log       Log    mole V
   Species          Molality    Activity  Molality  Activity     Gamma   cm³/mol

   OH-             1.033e-07   1.012e-07    -6.986    -6.995    -0.009     -4.12
   H+              1.020e-07   1.000e-07    -6.992    -7.000    -0.008      0.00
   H2O             5.551e+01   1.000e+00     1.744    -0.000     0.000     18.07
C(4)          2.439e-04
   HCO3-           1.995e-04   1.956e-04    -3.700    -3.709    -0.009     24.53
   CO2             4.398e-05   4.399e-05    -4.357    -4.357     0.000     34.43
   CaHCO3+         2.346e-07   2.301e-07    -6.630    -6.638    -0.009      9.66
   CO3-2           9.928e-08   9.175e-08    -7.003    -7.037    -0.034     -4.13
   CaCO3           1.421e-08   1.421e-08    -7.848    -7.847     0.000    -14.60
   (CO2)2          3.551e-11   3.551e-11   -10.450   -10.450     0.000     68.87
Ca            1.000e-04
   Ca+2            9.975e-05   9.218e-05    -4.001    -4.035    -0.034    -18.19
   CaHCO3+         2.346e-07   2.301e-07    -6.630    -6.638    -0.009      9.66
   CaCO3           1.421e-08   1.421e-08    -7.848    -7.847     0.000    -14.60
   CaOH+           1.560e-10   1.530e-10    -9.807    -9.815    -0.009     (0)  
H(0)          1.416e-25
   H2              7.079e-26   7.079e-26   -25.150   -25.150     0.000     28.61
O(0)          0.000e+00
   O2              0.000e+00   0.000e+00   -42.080   -42.080     0.000     30.40

------------------------------Saturation indices-------------------------------

  Phase               SI** log IAP   log K(298 K,   1 atm)

  Aragonite        -2.74    -11.07   -8.34  CaCO3
  Calcite          -2.59    -11.07   -8.48  CaCO3
  CO2(g)           -2.89     -4.36   -1.47  CO2
  H2(g)           -22.05    -25.15   -3.10  H2
  H2O(g)           -1.50     -0.00    1.50  H2O
  O2(g)           -39.19    -42.08   -2.89  O2

**For a gas, SI = log10(fugacity). Fugacity = pressure * phi / 1 atm.
  For ideal gases, phi = 1.

------------------
End of simulation.
------------------

------------------------------------
Reading input data for simulation 2.
------------------------------------

	TRANSPORT
	 cells 10
	 length 1e-9
	 shifts 1 0
	 bcond 1 2
	 timest 5e-10
	 punch_frequency 1
	 multi_d true 1e-9 1 0 1
	SELECTED_OUTPUT
WARNING: Cell-lengths were read for 1 cells. Last value is used till cell 10.
WARNING: No dispersivities were read; disp = 0 assumed.
WARNING: No porosities were read; used the value 1.00e+00 from -multi_D.
	 file debye1.sel
	 reset false
	USER_PUNCH
	 heading dist H2O_aq H2O_edl H2O_tot Na Cl pH mass_Na mass_Cl
	 start
	 1 if step_no = 0 then goto 80
	 10 punch dist, tot("water"), edl("water"), tot("water") + edl("water"), tot("Na")*1e3, tot("Cl")*1e3, -la("H+")
	 20 if cell_no = 1 then put(0, 1)
	 30 if cell_no = 1 then put(0, 2)
	 40 put(sys("Na") + get(1), 1)
	 50 put(sys("Cl") + get(2), 2)
	 60 if cell_no = 10 then punch get(1) * 1e3
	 70 if cell_no = 10 then punch get(2) * 1e3
	 80 end
	 end
	END
------------------------------------
Beginning of transport calculations.
------------------------------------

-------------------------------
Equilibrating initial solutions
-------------------------------

Using solution 0.	

-----------------------------Solution composition------------------------------

	Elements           Molality       Moles

	Cl                1.000e-01   1.000e-01
	Na                1.000e-01   1.000e-01

----------------------------Description of solution----------------------------

                                       pH  =   7.000      Charge balance
                                       pe  =   4.000      Adjusted to redox equilibrium
      Specific Conductance (µS/cm,  25°C)  = 10646
                          Density (g/cm³)  =   1.00115
                               Volume (L)  =   1.00469
                        Viscosity (mPa s)  =   0.89854
                        Activity of water  =   0.997
                 Ionic strength (mol/kgw)  =   1.000e-01
                       Mass of water (kg)  =   1.000e+00
                 Total alkalinity (eq/kg)  =   8.896e-09
                         Temperature (°C)  =  25.00
                  Electrical balance (eq)  =  -1.801e-15
 Percent error, 100*(Cat-|An|)/(Cat+|An|)  =  -0.00
                               Iterations  =   0
                                  Total H  = 1.110124e+02
                                  Total O  = 5.550622e+01

----------------------------Distribution of species----------------------------

                                               Log       Log       Log    mole V
   Species          Molality    Activity  Molality  Activity     Gamma   cm³/mol

   OH-             1.324e-07   1.009e-07    -6.878    -6.996    -0.118     -3.73
   H+              1.212e-07   1.000e-07    -6.917    -7.000    -0.083      0.00
   H2O             5.551e+01   9.966e-01     1.744    -0.001     0.000     18.07
Cl            1.000e-01
   Cl-             1.000e-01   7.666e-02    -1.000    -1.115    -0.115     18.34
   HCl             2.394e-09   2.641e-09    -8.621    -8.578     0.043     (0)  
H(0)          1.384e-25
   H2              6.918e-26   7.079e-26   -25.160   -25.150     0.010     28.61
Na            1.000e-01
   Na+             1.000e-01   7.851e-02    -1.000    -1.105    -0.105     -1.09
   NaOH            7.739e-19   7.919e-19   -18.111   -18.101     0.010     (0)  
O(0)          0.000e+00
   O2              0.000e+00   0.000e+00   -42.093   -42.083     0.010     30.40

------------------------------Saturation indices-------------------------------

  Phase               SI** log IAP   log K(298 K,   1 atm)

  H2(g)           -22.05    -25.15   -3.10  H2
  H2O(g)           -1.50     -0.00    1.50  H2O
  Halite           -3.79     -2.22    1.57  NaCl
  O2(g)           -39.19    -42.08   -2.89  O2

**For a gas, SI = log10(fugacity). Fugacity = pressure * phi / 1 atm.
  For ideal gases, phi = 1.

Using solution 1.	

-----------------------------Solution composition------------------------------

	Elements           Molality       Moles

	C                 2.439e-04   2.439e-04
	Ca                1.000e-04   1.000e-04

----------------------------Description of solution----------------------------

                                       pH  =   7.000      Charge balance
                                       pe  =   4.000      Adjusted to redox equilibrium
      Specific Conductance (µS/cm,  25°C)  = 20
                          Density (g/cm³)  =   0.99706
                               Volume (L)  =   1.00297
                        Viscosity (mPa s)  =   0.89032
                        Activity of water  =   1.000
                 Ionic strength (mol/kgw)  =   2.997e-04
                       Mass of water (kg)  =   1.000e+00
                 Total alkalinity (eq/kg)  =   2.000e-04
                       Total CO2 (mol/kg)  =   2.439e-04
                         Temperature (°C)  =  25.00
                  Electrical balance (eq)  =  -1.302e-12
 Percent error, 100*(Cat-|An|)/(Cat+|An|)  =  -0.00
                               Iterations  =   0
                                  Total H  = 1.110126e+02
                                  Total O  = 5.550690e+01

----------------------------Distribution of species----------------------------

                                               Log       Log       Log    mole V
   Species          Molality    Activity  Molality  Activity     Gamma   cm³/mol

   OH-             1.033e-07   1.012e-07    -6.986    -6.995    -0.009     -4.12
   H+              1.020e-07   1.000e-07    -6.992    -7.000    -0.008      0.00
   H2O             5.551e+01   1.000e+00     1.744    -0.000     0.000     18.07
C(-4)         0.000e+00
   CH4             0.000e+00   0.000e+00   -67.966   -67.966     0.000     35.46
C(4)          2.439e-04
   HCO3-           1.995e-04   1.956e-04    -3.700    -3.709    -0.009     24.53
   CO2             4.398e-05   4.399e-05    -4.357    -4.357     0.000     34.43
   CaHCO3+         2.346e-07   2.301e-07    -6.630    -6.638    -0.009      9.66
   CO3-2           9.928e-08   9.175e-08    -7.003    -7.037    -0.034     -4.13
   CaCO3           1.421e-08   1.421e-08    -7.848    -7.847     0.000    -14.60
   (CO2)2          3.551e-11   3.551e-11   -10.450   -10.450     0.000     68.87
Ca            1.000e-04
   Ca+2            9.975e-05   9.218e-05    -4.001    -4.035    -0.034    -18.19
   CaHCO3+         2.346e-07   2.301e-07    -6.630    -6.638    -0.009      9.66
   CaCO3           1.421e-08   1.421e-08    -7.848    -7.847     0.000    -14.60
   CaOH+           1.560e-10   1.530e-10    -9.807    -9.815    -0.009     (0)  
H(0)          1.416e-25
   H2              7.079e-26   7.079e-26   -25.150   -25.150     0.000     28.61
O(0)          0.000e+00
   O2              0.000e+00   0.000e+00   -42.080   -42.080     0.000     30.40

------------------------------Saturation indices-------------------------------

  Phase               SI** log IAP   log K(298 K,   1 atm)

  Aragonite        -2.74    -11.07   -8.34  CaCO3
  Calcite          -2.59    -11.07   -8.48  CaCO3
  CH4(g)          -65.16    -67.97   -2.80  CH4
  CO2(g)           -2.89     -4.36   -1.47  CO2
  H2(g)           -22.05    -25.15   -3.10  H2
  H2O(g)           -1.50     -0.00    1.50  H2O
  O2(g)           -39.19    -42.08   -2.89  O2

**For a gas, SI = log10(fugacity). Fugacity = pressure * phi / 1 atm.
  For ideal gases, phi = 1.

Using solution 2.	

-----------------------------Solution composition------------------------------

	Elements           Molality       Moles

	C                 2.439e-04   2.439e-04
	Ca                1.000e-04   1.000e-04

----------------------------Description of solution----------------------------

                                       pH  =   7.000      Charge balance
                                       pe  =   4.000      Adjusted to redox equilibrium
      Specific Conductance (µS/cm,  25°C)  = 20
                          Density (g/cm³)  =   0.99706
                               Volume (L)  =   1.00297
                        Viscosity (mPa s)  =   0.89032
                        Activity of water  =   1.000
                 Ionic strength (mol/kgw)  =   2.997e-04
                       Mass of water (kg)  =   1.000e+00
                 Total alkalinity (eq/kg)  =   2.000e-04
                       Total CO2 (mol/kg)  =   2.439e-04
                         Temperature (°C)  =  25.00
                  Electrical balance (eq)  =  -1.302e-12
 Percent error, 100*(Cat-|An|)/(Cat+|An|)  =  -0.00
                               Iterations  =   0
                                  Total H  = 1.110126e+02
                                  Total O  = 5.550690e+01

----------------------------Distribution of species----------------------------

                                               Log       Log       Log    mole V
   Species          Molality    Activity  Molality  Activity     Gamma   cm³/mol

   OH-             1.033e-07   1.012e-07    -6.986    -6.995    -0.009     -4.12
   H+              1.020e-07   1.000e-07    -6.992    -7.000    -0.008      0.00
   H2O             5.551e+01   1.000e+00     1.744    -0.000     0.000     18.07
C(-4)         0.000e+00
   CH4             0.000e+00   0.000e+00   -67.966   -67.966     0.000     35.46
C(4)          2.439e-04
   HCO3-           1.995e-04   1.956e-04    -3.700    -3.709    -0.009     24.53
   CO2             4.398e-05   4.399e-05    -4.357    -4.357     0.000     34.43
   CaHCO3+         2.346e-07   2.301e-07    -6.630    -6.638    -0.009      9.66
   CO3-2           9.928e-08   9.175e-08    -7.003    -7.037    -0.034     -4.13
   CaCO3           1.421e-08   1.421e-08    -7.848    -7.847     0.000    -14.60
   (CO2)2          3.551e-11   3.551e-11   -10.450   -10.450     0.000     68.87
Ca            1.000e-04
   Ca+2            9.975e-05   9.218e-05    -4.001    -4.035    -0.034    -18.19
   CaHCO3+         2.346e-07   2.301e-07    -6.630    -6.638    -0.009      9.66
   CaCO3           1.421e-08   1.421e-08    -7.848    -7.847     0.000    -14.60
   CaOH+           1.560e-10   1.530e-10    -9.807    -9.815    -0.009     (0)  
H(0)          1.416e-25
   H2              7.079e-26   7.079e-26   -25.150   -25.150     0.000     28.61
O(0)          0.000e+00
   O2              0.000e+00   0.000e+00   -42.080   -42.080     0.000     30.40

------------------------------Saturation indices-------------------------------

  Phase               SI** log IAP   log K(298 K,   1 atm)

  Aragonite        -2.74    -11.07   -8.34  CaCO3
  Calcite          -2.59    -11.07   -8.48  CaCO3
  CH4(g)          -65.16    -67.97   -2.80  CH4
  CO2(g)           -2.89     -4.36   -1.47  CO2
  H2(g)           -22.05    -25.15   -3.10  H2
  H2O(g)           -1.50     -0.00    1.50  H2O
  O2(g)           -39.19    -42.08   -2.89  O2

**For a gas, SI = log10(fugacity). Fugacity = pressure * phi / 1 atm.
  For ideal gases, phi = 1.

Using solution 3.	

-----------------------------Solution composition------------------------------

	Elements           Molality       Moles

	C                 2.439e-04   2.439e-04
	Ca                1.000e-04   1.000e-04

----------------------------Description of solution----------------------------

                                       pH  =   7.000      Charge balance
                                       pe  =   4.000      Adjusted to redox equilibrium
      Specific Conductance (µS/cm,  25°C)  = 20
                          Density (g/cm³)  =   0.99706
                               Volume (L)  =   1.00297
                        Viscosity (mPa s)  =   0.89032
                        Activity of water  =   1.000
                 Ionic strength (mol/kgw)  =   2.997e-04
                       Mass of water (kg)  =   1.000e+00
                 Total alkalinity (eq/kg)  =   2.000e-04
                       Total CO2 (mol/kg)  =   2.439e-04
                         Temperature (°C)  =  25.00
                  Electrical balance (eq)  =  -1.302e-12
 Percent error, 100*(Cat-|An|)/(Cat+|An|)  =  -0.00
                               Iterations  =   0
                                  Total H  = 1.110126e+02
                                  Total O  = 5.550690e+01

----------------------------Distribution of species----------------------------

                                               Log       Log       Log    mole V
   Species          Molality    Activity  Molality  Activity     Gamma   cm³/mol

   OH-             1.033e-07   1.012e-07    -6.986    -6.995    -0.009     -4.12
   H+              1.020e-07   1.000e-07    -6.992    -7.000    -0.008      0.00
   H2O             5.551e+01   1.000e+00     1.744    -0.000     0.000     18.07
C(-4)         0.000e+00
   CH4             0.000e+00   0.000e+00   -67.966   -67.966     0.000     35.46
C(4)          2.439e-04
   HCO3-           1.995e-04   1.956e-04    -3.700    -3.709    -0.009     24.53
   CO2             4.398e-05   4.399e-05    -4.357    -4.357     0.000     34.43
   CaHCO3+         2.346e-07   2.301e-07    -6.630    -6.638    -0.009      9.66
   CO3-2           9.928e-08   9.175e-08    -7.003    -7.037    -0.034     -4.13
   CaCO3           1.421e-08   1.421e-08    -7.848    -7.847     0.000    -14.60
   (CO2)2          3.551e-11   3.551e-11   -10.450   -10.450     0.000     68.87
Ca            1.000e-04
   Ca+2            9.975e-05   9.218e-05    -4.001    -4.035    -0.034    -18.19
   CaHCO3+         2.346e-07   2.301e-07    -6.630    -6.638    -0.009      9.66
   CaCO3           1.421e-08   1.421e-08    -7.848    -7.847     0.000    -14.60
   CaOH+           1.560e-10   1.530e-10    -9.807    -9.815    -0.009     (0)  
H(0)          1.416e-25
   H2              7.079e-26   7.079e-26   -25.150   -25.150     0.000     28.61
O(0)          0.000e+00
   O2              0.000e+00   0.000e+00   -42.080   -42.080     0.000     30.40

------------------------------Saturation indices-------------------------------

  Phase               SI** log IAP   log K(298 K,   1 atm)

  Aragonite        -2.74    -11.07   -8.34  CaCO3
  Calcite          -2.59    -11.07   -8.48  CaCO3
  CH4(g)          -65.16    -67.97   -2.80  CH4
  CO2(g)           -2.89     -4.36   -1.47  CO2
  H2(g)           -22.05    -25.15   -3.10  H2
  H2O(g)           -1.50     -0.00    1.50  H2O
  O2(g)           -39.19    -42.08   -2.89  O2

**For a gas, SI = log10(fugacity). Fugacity = pressure * phi / 1 atm.
  For ideal gases, phi = 1.

Using solution 4.	

-----------------------------Solution composition------------------------------

	Elements           Molality       Moles

	C                 2.439e-04   2.439e-04
	Ca                1.000e-04   1.000e-04

----------------------------Description of solution----------------------------

                                       pH  =   7.000      Charge balance
                                       pe  =   4.000      Adjusted to redox equilibrium
      Specific Conductance (µS/cm,  25°C)  = 20
                          Density (g/cm³)  =   0.99706
                               Volume (L)  =   1.00297
                        Viscosity (mPa s)  =   0.89032
                        Activity of water  =   1.000
                 Ionic strength (mol/kgw)  =   2.997e-04
                       Mass of water (kg)  =   1.000e+00
                 Total alkalinity (eq/kg)  =   2.000e-04
                       Total CO2 (mol/kg)  =   2.439e-04
                         Temperature (°C)  =  25.00
                  Electrical balance (eq)  =  -1.302e-12
 Percent error, 100*(Cat-|An|)/(Cat+|An|)  =  -0.00
                               Iterations  =   0
                                  Total H  = 1.110126e+02
                                  Total O  = 5.550690e+01

----------------------------Distribution of species----------------------------

                                               Log       Log       Log    mole V
   Species          Molality    Activity  Molality  Activity     Gamma   cm³/mol

   OH-             1.033e-07   1.012e-07    -6.986    -6.995    -0.009     -4.12
   H+              1.020e-07   1.000e-07    -6.992    -7.000    -0.008      0.00
   H2O             5.551e+01   1.000e+00     1.744    -0.000     0.000     18.07
C(-4)         0.000e+00
   CH4             0.000e+00   0.000e+00   -67.966   -67.966     0.000     35.46
C(4)          2.439e-04
   HCO3-           1.995e-04   1.956e-04    -3.700    -3.709    -0.009     24.53
   CO2             4.398e-05   4.399e-05    -4.357    -4.357     0.000     34.43
   CaHCO3+         2.346e-07   2.301e-07    -6.630    -6.638    -0.009      9.66
   CO3-2           9.928e-08   9.175e-08    -7.003    -7.037    -0.034     -4.13
   CaCO3           1.421e-08   1.421e-08    -7.848    -7.847     0.000    -14.60
   (CO2)2          3.551e-11   3.551e-11   -10.450   -10.450     0.000     68.87
Ca            1.000e-04
   Ca+2            9.975e-05   9.218e-05    -4.001    -4.035    -0.034    -18.19
   CaHCO3+         2.346e-07   2.301e-07    -6.630    -6.638    -0.009      9.66
   CaCO3           1.421e-08   1.421e-08    -7.848    -7.847     0.000    -14.60
   CaOH+           1.560e-10   1.530e-10    -9.807    -9.815    -0.009     (0)  
H(0)          1.416e-25
   H2              7.079e-26   7.079e-26   -25.150   -25.150     0.000     28.61
O(0)          0.000e+00
   O2              0.000e+00   0.000e+00   -42.080   -42.080     0.000     30.40

------------------------------Saturation indices-------------------------------

  Phase               SI** log IAP   log K(298 K,   1 atm)

  Aragonite        -2.74    -11.07   -8.34  CaCO3
  Calcite          -2.59    -11.07   -8.48  CaCO3
  CH4(g)          -65.16    -67.97   -2.80  CH4
  CO2(g)           -2.89     -4.36   -1.47  CO2
  H2(g)           -22.05    -25.15   -3.10  H2
  H2O(g)           -1.50     -0.00    1.50  H2O
  O2(g)           -39.19    -42.08   -2.89  O2

**For a gas, SI = log10(fugacity). Fugacity = pressure * phi / 1 atm.
  For ideal gases, phi = 1.

Using solution 5.	

-----------------------------Solution composition------------------------------

	Elements           Molality       Moles

	C                 2.439e-04   2.439e-04
	Ca                1.000e-04   1.000e-04

----------------------------Description of solution----------------------------

                                       pH  =   7.000      Charge balance
                                       pe  =   4.000      Adjusted to redox equilibrium
      Specific Conductance (µS/cm,  25°C)  = 20
                          Density (g/cm³)  =   0.99706
                               Volume (L)  =   1.00297
                        Viscosity (mPa s)  =   0.89032
                        Activity of water  =   1.000
                 Ionic strength (mol/kgw)  =   2.997e-04
                       Mass of water (kg)  =   1.000e+00
                 Total alkalinity (eq/kg)  =   2.000e-04
                       Total CO2 (mol/kg)  =   2.439e-04
                         Temperature (°C)  =  25.00
                  Electrical balance (eq)  =  -1.302e-12
 Percent error, 100*(Cat-|An|)/(Cat+|An|)  =  -0.00
                               Iterations  =   0
                                  Total H  = 1.110126e+02
                                  Total O  = 5.550690e+01

----------------------------Distribution of species----------------------------

                                               Log       Log       Log    mole V
   Species          Molality    Activity  Molality  Activity     Gamma   cm³/mol

   OH-             1.033e-07   1.012e-07    -6.986    -6.995    -0.009     -4.12
   H+              1.020e-07   1.000e-07    -6.992    -7.000    -0.008      0.00
   H2O             5.551e+01   1.000e+00     1.744    -0.000     0.000     18.07
C(-4)         0.000e+00
   CH4             0.000e+00   0.000e+00   -67.966   -67.966     0.000     35.46
C(4)          2.439e-04
   HCO3-           1.995e-04   1.956e-04    -3.700    -3.709    -0.009     24.53
   CO2             4.398e-05   4.399e-05    -4.357    -4.357     0.000     34.43
   CaHCO3+         2.346e-07   2.301e-07    -6.630    -6.638    -0.009      9.66
   CO3-2           9.928e-08   9.175e-08    -7.003    -7.037    -0.034     -4.13
   CaCO3           1.421e-08   1.421e-08    -7.848    -7.847     0.000    -14.60
   (CO2)2          3.551e-11   3.551e-11   -10.450   -10.450     0.000     68.87
Ca            1.000e-04
   Ca+2            9.975e-05   9.218e-05    -4.001    -4.035    -0.034    -18.19
   CaHCO3+         2.346e-07   2.301e-07    -6.630    -6.638    -0.009      9.66
   CaCO3           1.421e-08   1.421e-08    -7.848    -7.847     0.000    -14.60
   CaOH+           1.560e-10   1.530e-10    -9.807    -9.815    -0.009     (0)  
H(0)          1.416e-25
   H2              7.079e-26   7.079e-26   -25.150   -25.150     0.000     28.61
O(0)          0.000e+00
   O2              0.000e+00   0.000e+00   -42.080   -42.080     0.000     30.40

------------------------------Saturation indices-------------------------------

  Phase               SI** log IAP   log K(298 K,   1 atm)

  Aragonite        -2.74    -11.07   -8.34  CaCO3
  Calcite          -2.59    -11.07   -8.48  CaCO3
  CH4(g)          -65.16    -67.97   -2.80  CH4
  CO2(g)           -2.89     -4.36   -1.47  CO2
  H2(g)           -22.05    -25.15   -3.10  H2
  H2O(g)           -1.50     -0.00    1.50  H2O
  O2(g)           -39.19    -42.08   -2.89  O2

**For a gas, SI = log10(fugacity). Fugacity = pressure * phi / 1 atm.
  For ideal gases, phi = 1.

Using solution 6.	

-----------------------------Solution composition------------------------------

	Elements           Molality       Moles

	C                 2.439e-04   2.439e-04
	Ca                1.000e-04   1.000e-04

----------------------------Description of solution----------------------------

                                       pH  =   7.000      Charge balance
                                       pe  =   4.000      Adjusted to redox equilibrium
      Specific Conductance (µS/cm,  25°C)  = 20
                          Density (g/cm³)  =   0.99706
                               Volume (L)  =   1.00297
                        Viscosity (mPa s)  =   0.89032
                        Activity of water  =   1.000
                 Ionic strength (mol/kgw)  =   2.997e-04
                       Mass of water (kg)  =   1.000e+00
                 Total alkalinity (eq/kg)  =   2.000e-04
                       Total CO2 (mol/kg)  =   2.439e-04
                         Temperature (°C)  =  25.00
                  Electrical balance (eq)  =  -1.302e-12
 Percent error, 100*(Cat-|An|)/(Cat+|An|)  =  -0.00
                               Iterations  =   0
                                  Total H  = 1.110126e+02
                                  Total O  = 5.550690e+01

----------------------------Distribution of species----------------------------

                                               Log       Log       Log    mole V
   Species          Molality    Activity  Molality  Activity     Gamma   cm³/mol

   OH-             1.033e-07   1.012e-07    -6.986    -6.995    -0.009     -4.12
   H+              1.020e-07   1.000e-07    -6.992    -7.000    -0.008      0.00
   H2O             5.551e+01   1.000e+00     1.744    -0.000     0.000     18.07
C(-4)         0.000e+00
   CH4             0.000e+00   0.000e+00   -67.966   -67.966     0.000     35.46
C(4)          2.439e-04
   HCO3-           1.995e-04   1.956e-04    -3.700    -3.709    -0.009     24.53
   CO2             4.398e-05   4.399e-05    -4.357    -4.357     0.000     34.43
   CaHCO3+         2.346e-07   2.301e-07    -6.630    -6.638    -0.009      9.66
   CO3-2           9.928e-08   9.175e-08    -7.003    -7.037    -0.034     -4.13
   CaCO3           1.421e-08   1.421e-08    -7.848    -7.847     0.000    -14.60
   (CO2)2          3.551e-11   3.551e-11   -10.450   -10.450     0.000     68.87
Ca            1.000e-04
   Ca+2            9.975e-05   9.218e-05    -4.001    -4.035    -0.034    -18.19
   CaHCO3+         2.346e-07   2.301e-07    -6.630    -6.638    -0.009      9.66
   CaCO3           1.421e-08   1.421e-08    -7.848    -7.847     0.000    -14.60
   CaOH+           1.560e-10   1.530e-10    -9.807    -9.815    -0.009     (0)  
H(0)          1.416e-25
   H2              7.079e-26   7.079e-26   -25.150   -25.150     0.000     28.61
O(0)          0.000e+00
   O2              0.000e+00   0.000e+00   -42.080   -42.080     0.000     30.40

------------------------------Saturation indices-------------------------------

  Phase               SI** log IAP   log K(298 K,   1 atm)

  Aragonite        -2.74    -11.07   -8.34  CaCO3
  Calcite          -2.59    -11.07   -8.48  CaCO3
  CH4(g)          -65.16    -67.97   -2.80  CH4
  CO2(g)           -2.89     -4.36   -1.47  CO2
  H2(g)           -22.05    -25.15   -3.10  H2
  H2O(g)           -1.50     -0.00    1.50  H2O
  O2(g)           -39.19    -42.08   -2.89  O2

**For a gas, SI = log10(fugacity). Fugacity = pressure * phi / 1 atm.
  For ideal gases, phi = 1.

Using solution 7.	

-----------------------------Solution composition------------------------------

	Elements           Molality       Moles

	C                 2.439e-04   2.439e-04
	Ca                1.000e-04   1.000e-04

----------------------------Description of solution----------------------------

                                       pH  =   7.000      Charge balance
                                       pe  =   4.000      Adjusted to redox equilibrium
      Specific Conductance (µS/cm,  25°C)  = 20
                          Density (g/cm³)  =   0.99706
                               Volume (L)  =   1.00297
                        Viscosity (mPa s)  =   0.89032
                        Activity of water  =   1.000
                 Ionic strength (mol/kgw)  =   2.997e-04
                       Mass of water (kg)  =   1.000e+00
                 Total alkalinity (eq/kg)  =   2.000e-04
                       Total CO2 (mol/kg)  =   2.439e-04
                         Temperature (°C)  =  25.00
                  Electrical balance (eq)  =  -1.302e-12
 Percent error, 100*(Cat-|An|)/(Cat+|An|)  =  -0.00
                               Iterations  =   0
                                  Total H  = 1.110126e+02
                                  Total O  = 5.550690e+01

----------------------------Distribution of species----------------------------

                                               Log       Log       Log    mole V
   Species          Molality    Activity  Molality  Activity     Gamma   cm³/mol

   OH-             1.033e-07   1.012e-07    -6.986    -6.995    -0.009     -4.12
   H+              1.020e-07   1.000e-07    -6.992    -7.000    -0.008      0.00
   H2O             5.551e+01   1.000e+00     1.744    -0.000     0.000     18.07
C(-4)         0.000e+00
   CH4             0.000e+00   0.000e+00   -67.966   -67.966     0.000     35.46
C(4)          2.439e-04
   HCO3-           1.995e-04   1.956e-04    -3.700    -3.709    -0.009     24.53
   CO2             4.398e-05   4.399e-05    -4.357    -4.357     0.000     34.43
   CaHCO3+         2.346e-07   2.301e-07    -6.630    -6.638    -0.009      9.66
   CO3-2           9.928e-08   9.175e-08    -7.003    -7.037    -0.034     -4.13
   CaCO3           1.421e-08   1.421e-08    -7.848    -7.847     0.000    -14.60
   (CO2)2          3.551e-11   3.551e-11   -10.450   -10.450     0.000     68.87
Ca            1.000e-04
   Ca+2            9.975e-05   9.218e-05    -4.001    -4.035    -0.034    -18.19
   CaHCO3+         2.346e-07   2.301e-07    -6.630    -6.638    -0.009      9.66
   CaCO3           1.421e-08   1.421e-08    -7.848    -7.847     0.000    -14.60
   CaOH+           1.560e-10   1.530e-10    -9.807    -9.815    -0.009     (0)  
H(0)          1.416e-25
   H2              7.079e-26   7.079e-26   -25.150   -25.150     0.000     28.61
O(0)          0.000e+00
   O2              0.000e+00   0.000e+00   -42.080   -42.080     0.000     30.40

------------------------------Saturation indices-------------------------------

  Phase               SI** log IAP   log K(298 K,   1 atm)

  Aragonite        -2.74    -11.07   -8.34  CaCO3
  Calcite          -2.59    -11.07   -8.48  CaCO3
  CH4(g)          -65.16    -67.97   -2.80  CH4
  CO2(g)           -2.89     -4.36   -1.47  CO2
  H2(g)           -22.05    -25.15   -3.10  H2
  H2O(g)           -1.50     -0.00    1.50  H2O
  O2(g)           -39.19    -42.08   -2.89  O2

**For a gas, SI = log10(fugacity). Fugacity = pressure * phi / 1 atm.
  For ideal gases, phi = 1.

Using solution 8.	

-----------------------------Solution composition------------------------------

	Elements           Molality       Moles

	C                 2.439e-04   2.439e-04
	Ca                1.000e-04   1.000e-04

----------------------------Description of solution----------------------------

                                       pH  =   7.000      Charge balance
                                       pe  =   4.000      Adjusted to redox equilibrium
      Specific Conductance (µS/cm,  25°C)  = 20
                          Density (g/cm³)  =   0.99706
                               Volume (L)  =   1.00297
                        Viscosity (mPa s)  =   0.89032
                        Activity of water  =   1.000
                 Ionic strength (mol/kgw)  =   2.997e-04
                       Mass of water (kg)  =   1.000e+00
                 Total alkalinity (eq/kg)  =   2.000e-04
                       Total CO2 (mol/kg)  =   2.439e-04
                         Temperature (°C)  =  25.00
                  Electrical balance (eq)  =  -1.302e-12
 Percent error, 100*(Cat-|An|)/(Cat+|An|)  =  -0.00
                               Iterations  =   0
                                  Total H  = 1.110126e+02
                                  Total O  = 5.550690e+01

----------------------------Distribution of species----------------------------

                                               Log       Log       Log    mole V
   Species          Molality    Activity  Molality  Activity     Gamma   cm³/mol

   OH-             1.033e-07   1.012e-07    -6.986    -6.995    -0.009     -4.12
   H+              1.020e-07   1.000e-07    -6.992    -7.000    -0.008      0.00
   H2O             5.551e+01   1.000e+00     1.744    -0.000     0.000     18.07
C(-4)         0.000e+00
   CH4             0.000e+00   0.000e+00   -67.966   -67.966     0.000     35.46
C(4)          2.439e-04
   HCO3-           1.995e-04   1.956e-04    -3.700    -3.709    -0.009     24.53
   CO2             4.398e-05   4.399e-05    -4.357    -4.357     0.000     34.43
   CaHCO3+         2.346e-07   2.301e-07    -6.630    -6.638    -0.009      9.66
   CO3-2           9.928e-08   9.175e-08    -7.003    -7.037    -0.034     -4.13
   CaCO3           1.421e-08   1.421e-08    -7.848    -7.847     0.000    -14.60
   (CO2)2          3.551e-11   3.551e-11   -10.450   -10.450     0.000     68.87
Ca            1.000e-04
   Ca+2            9.975e-05   9.218e-05    -4.001    -4.035    -0.034    -18.19
   CaHCO3+         2.346e-07   2.301e-07    -6.630    -6.638    -0.009      9.66
   CaCO3           1.421e-08   1.421e-08    -7.848    -7.847     0.000    -14.60
   CaOH+           1.560e-10   1.530e-10    -9.807    -9.815    -0.009     (0)  
H(0)          1.416e-25
   H2              7.079e-26   7.079e-26   -25.150   -25.150     0.000     28.61
O(0)          0.000e+00
   O2              0.000e+00   0.000e+00   -42.080   -42.080     0.000     30.40

------------------------------Saturation indices-------------------------------

  Phase               SI** log IAP   log K(298 K,   1 atm)

  Aragonite        -2.74    -11.07   -8.34  CaCO3
  Calcite          -2.59    -11.07   -8.48  CaCO3
  CH4(g)          -65.16    -67.97   -2.80  CH4
  CO2(g)           -2.89     -4.36   -1.47  CO2
  H2(g)           -22.05    -25.15   -3.10  H2
  H2O(g)           -1.50     -0.00    1.50  H2O
  O2(g)           -39.19    -42.08   -2.89  O2

**For a gas, SI = log10(fugacity). Fugacity = pressure * phi / 1 atm.
  For ideal gases, phi = 1.

Using solution 9.	

-----------------------------Solution composition------------------------------

	Elements           Molality       Moles

	C                 2.439e-04   2.439e-04
	Ca                1.000e-04   1.000e-04

----------------------------Description of solution----------------------------

                                       pH  =   7.000      Charge balance
                                       pe  =   4.000      Adjusted to redox equilibrium
      Specific Conductance (µS/cm,  25°C)  = 20
                          Density (g/cm³)  =   0.99706
                               Volume (L)  =   1.00297
                        Viscosity (mPa s)  =   0.89032
                        Activity of water  =   1.000
                 Ionic strength (mol/kgw)  =   2.997e-04
                       Mass of water (kg)  =   1.000e+00
                 Total alkalinity (eq/kg)  =   2.000e-04
                       Total CO2 (mol/kg)  =   2.439e-04
                         Temperature (°C)  =  25.00
                  Electrical balance (eq)  =  -1.302e-12
 Percent error, 100*(Cat-|An|)/(Cat+|An|)  =  -0.00
                               Iterations  =   0
                                  Total H  = 1.110126e+02
                                  Total O  = 5.550690e+01

----------------------------Distribution of species----------------------------

                                               Log       Log       Log    mole V
   Species          Molality    Activity  Molality  Activity     Gamma   cm³/mol

   OH-             1.033e-07   1.012e-07    -6.986    -6.995    -0.009     -4.12
   H+              1.020e-07   1.000e-07    -6.992    -7.000    -0.008      0.00
   H2O             5.551e+01   1.000e+00     1.744    -0.000     0.000     18.07
C(-4)         0.000e+00
   CH4             0.000e+00   0.000e+00   -67.966   -67.966     0.000     35.46
C(4)          2.439e-04
   HCO3-           1.995e-04   1.956e-04    -3.700    -3.709    -0.009     24.53
   CO2             4.398e-05   4.399e-05    -4.357    -4.357     0.000     34.43
   CaHCO3+         2.346e-07   2.301e-07    -6.630    -6.638    -0.009      9.66
   CO3-2           9.928e-08   9.175e-08    -7.003    -7.037    -0.034     -4.13
   CaCO3           1.421e-08   1.421e-08    -7.848    -7.847     0.000    -14.60
   (CO2)2          3.551e-11   3.551e-11   -10.450   -10.450     0.000     68.87
Ca            1.000e-04
   Ca+2            9.975e-05   9.218e-05    -4.001    -4.035    -0.034    -18.19
   CaHCO3+         2.346e-07   2.301e-07    -6.630    -6.638    -0.009      9.66
   CaCO3           1.421e-08   1.421e-08    -7.848    -7.847     0.000    -14.60
   CaOH+           1.560e-10   1.530e-10    -9.807    -9.815    -0.009     (0)  
H(0)          1.416e-25
   H2              7.079e-26   7.079e-26   -25.150   -25.150     0.000     28.61
O(0)          0.000e+00
   O2              0.000e+00   0.000e+00   -42.080   -42.080     0.000     30.40

------------------------------Saturation indices-------------------------------

  Phase               SI** log IAP   log K(298 K,   1 atm)

  Aragonite        -2.74    -11.07   -8.34  CaCO3
  Calcite          -2.59    -11.07   -8.48  CaCO3
  CH4(g)          -65.16    -67.97   -2.80  CH4
  CO2(g)           -2.89     -4.36   -1.47  CO2
  H2(g)           -22.05    -25.15   -3.10  H2
  H2O(g)           -1.50     -0.00    1.50  H2O
  O2(g)           -39.19    -42.08   -2.89  O2

**For a gas, SI = log10(fugacity). Fugacity = pressure * phi / 1 atm.
  For ideal gases, phi = 1.

Using solution 10.	

-----------------------------Solution composition------------------------------

	Elements           Molality       Moles

	C                 2.439e-04   2.439e-04
	Ca                1.000e-04   1.000e-04

----------------------------Description of solution----------------------------

                                       pH  =   7.000      Charge balance
                                       pe  =   4.000      Adjusted to redox equilibrium
      Specific Conductance (µS/cm,  25°C)  = 20
                          Density (g/cm³)  =   0.99706
                               Volume (L)  =   1.00297
                        Viscosity (mPa s)  =   0.89032
                        Activity of water  =   1.000
                 Ionic strength (mol/kgw)  =   2.997e-04
                       Mass of water (kg)  =   1.000e+00
                 Total alkalinity (eq/kg)  =   2.000e-04
                       Total CO2 (mol/kg)  =   2.439e-04
                         Temperature (°C)  =  25.00
                  Electrical balance (eq)  =  -1.302e-12
 Percent error, 100*(Cat-|An|)/(Cat+|An|)  =  -0.00
                               Iterations  =   0
                                  Total H  = 1.110126e+02
                                  Total O  = 5.550690e+01

----------------------------Distribution of species----------------------------

                                               Log       Log       Log    mole V
   Species          Molality    Activity  Molality  Activity     Gamma   cm³/mol

   OH-             1.033e-07   1.012e-07    -6.986    -6.995    -0.009     -4.12
   H+              1.020e-07   1.000e-07    -6.992    -7.000    -0.008      0.00
   H2O             5.551e+01   1.000e+00     1.744    -0.000     0.000     18.07
C(-4)         0.000e+00
   CH4             0.000e+00   0.000e+00   -67.966   -67.966     0.000     35.46
C(4)          2.439e-04
   HCO3-           1.995e-04   1.956e-04    -3.700    -3.709    -0.009     24.53
   CO2             4.398e-05   4.399e-05    -4.357    -4.357     0.000     34.43
   CaHCO3+         2.346e-07   2.301e-07    -6.630    -6.638    -0.009      9.66
   CO3-2           9.928e-08   9.175e-08    -7.003    -7.037    -0.034     -4.13
   CaCO3           1.421e-08   1.421e-08    -7.848    -7.847     0.000    -14.60
   (CO2)2          3.551e-11   3.551e-11   -10.450   -10.450     0.000     68.87
Ca            1.000e-04
   Ca+2            9.975e-05   9.218e-05    -4.001    -4.035    -0.034    -18.19
   CaHCO3+         2.346e-07   2.301e-07    -6.630    -6.638    -0.009      9.66
   CaCO3           1.421e-08   1.421e-08    -7.848    -7.847     0.000    -14.60
   CaOH+           1.560e-10   1.530e-10    -9.807    -9.815    -0.009     (0)  
H(0)          1.416e-25
   H2              7.079e-26   7.079e-26   -25.150   -25.150     0.000     28.61
O(0)          0.000e+00
   O2              0.000e+00   0.000e+00   -42.080   -42.080     0.000     30.40

------------------------------Saturation indices-------------------------------

  Phase               SI** log IAP   log K(298 K,   1 atm)

  Aragonite        -2.74    -11.07   -8.34  CaCO3
  Calcite          -2.59    -11.07   -8.48  CaCO3
  CH4(g)          -65.16    -67.97   -2.80  CH4
  CO2(g)           -2.89     -4.36   -1.47  CO2
  H2(g)           -22.05    -25.15   -3.10  H2
  H2O(g)           -1.50     -0.00    1.50  H2O
  O2(g)           -39.19    -42.08   -2.89  O2

**For a gas, SI = log10(fugacity). Fugacity = pressure * phi / 1 atm.
  For ideal gases, phi = 1.

WARNING: 
Calculating transport: 10 (mobile) cells, 1 shifts, 21 mixruns...


Transport step   1. Multicomponent diffusion run  21.

Using solution 0.	Solution after simulation 2.

-----------------------------Solution composition------------------------------

	Elements           Molality       Moles

	Cl                1.000e-01   1.000e-01
	Na                1.000e-01   1.000e-01

----------------------------Description of solution----------------------------

                                       pH  =   7.000      Charge balance
                                       pe  =   4.000      Adjusted to redox equilibrium
      Specific Conductance (µS/cm,  25°C)  = 10646
                          Density (g/cm³)  =   1.00115
                               Volume (L)  =   1.00469
                        Viscosity (mPa s)  =   0.89854
                        Activity of water  =   0.997
                 Ionic strength (mol/kgw)  =   1.000e-01
                       Mass of water (kg)  =   1.000e+00
                 Total alkalinity (eq/kg)  =   8.896e-09
                         Temperature (°C)  =  25.00
                  Electrical balance (eq)  =  -2.023e-15
 Percent error, 100*(Cat-|An|)/(Cat+|An|)  =  -0.00
                               Iterations  =   0
                                  Total H  = 1.110124e+02
                                  Total O  = 5.550622e+01

----------------------------Distribution of species----------------------------

                                               Log       Log       Log    mole V
   Species          Molality    Activity  Molality  Activity     Gamma   cm³/mol

   OH-             1.324e-07   1.009e-07    -6.878    -6.996    -0.118     -3.73
   H+              1.212e-07   1.000e-07    -6.917    -7.000    -0.083      0.00
   H2O             5.551e+01   9.966e-01     1.744    -0.001     0.000     18.07
Cl            1.000e-01
   Cl-             1.000e-01   7.666e-02    -1.000    -1.115    -0.115     18.34
   HCl             2.394e-09   2.641e-09    -8.621    -8.578     0.043     (0)  
H(0)          1.384e-25
   H2              6.918e-26   7.079e-26   -25.160   -25.150     0.010     28.61
Na            1.000e-01
   Na+             1.000e-01   7.851e-02    -1.000    -1.105    -0.105     -1.09
   NaOH            7.739e-19   7.919e-19   -18.111   -18.101     0.010     (0)  
O(0)          0.000e+00
   O2              0.000e+00   0.000e+00   -42.093   -42.083     0.010     30.40

------------------------------Saturation indices-------------------------------

  Phase               SI** log IAP   log K(298 K,   1 atm)

  H2(g)           -22.05    -25.15   -3.10  H2
  H2O(g)           -1.50     -0.00    1.50  H2O
  Halite           -3.79     -2.22    1.57  NaCl
  O2(g)           -39.19    -42.08   -2.89  O2

**For a gas, SI = log10(fugacity). Fugacity = pressure * phi / 1 atm.
  For ideal gases, phi = 1.

Using mix 1.	

Mixture 1.	

	  0.000e+00 Solution 0	Solution after simulation 2.                           
	  1.000e+00 Solution 1	Solution after simulation 2.                           
	  0.000e+00 Solution 2	Solution after simulation 2.                           

-----------------------------Solution composition------------------------------

	Elements           Molality       Moles

	C                 1.062e-04   1.062e-04
	Ca                5.066e-05   5.066e-05
	Cl                6.373e-02   6.373e-02
	Na                6.372e-02   6.372e-02

----------------------------Description of solution----------------------------

                                       pH  =   7.077      Charge balance
                                       pe  =  11.264      Adjusted to redox equilibrium
      Specific Conductance (µS/cm,  25°C)  = 6975
                          Density (g/cm³)  =   0.99968
                               Volume (L)  =   1.00406
                        Viscosity (mPa s)  =   0.89574
                        Activity of water  =   0.998
                 Ionic strength (mol/kgw)  =   6.387e-02
                       Mass of water (kg)  =   1.000e+00
                 Total alkalinity (eq/kg)  =   9.262e-05
                       Total CO2 (mol/kg)  =   1.062e-04
                         Temperature (°C)  =  25.00
                  Electrical balance (eq)  =  -1.829e-13
 Percent error, 100*(Cat-|An|)/(Cat+|An|)  =  -0.00
                               Iterations  =   3
                                  Total H  = 1.110125e+02
                                  Total O  = 5.550652e+01

----------------------------Distribution of species----------------------------

                                               Log       Log       Log    mole V
   Species          Molality    Activity  Molality  Activity     Gamma   cm³/mol

   OH-             1.517e-07   1.205e-07    -6.819    -6.919    -0.100     -3.83
   H+              9.929e-08   8.378e-08    -7.003    -7.077    -0.074      0.00
   H2O             5.551e+01   9.978e-01     1.744    -0.001     0.000     18.07
C(-4)         0.000e+00
   CH4             0.000e+00   0.000e+00  -127.202  -127.196     0.006     35.46
C(4)          1.062e-04
   HCO3-           8.990e-05   7.325e-05    -4.046    -4.135    -0.089     24.94
   CO2             1.369e-05   1.383e-05    -4.863    -4.859     0.004     34.43
   NaHCO3          2.446e-06   2.530e-06    -5.612    -5.597     0.015     28.00
   CO3-2           9.306e-08   4.100e-08    -7.031    -7.387    -0.356     -3.10
   CaHCO3+         2.554e-08   2.095e-08    -7.593    -7.679    -0.086      9.81
   CaCO3           1.522e-09   1.544e-09    -8.818    -8.811     0.006    -14.60
   (CO2)2          3.458e-12   3.509e-12   -11.461   -11.455     0.006     68.87
Ca            5.066e-05
   Ca+2            5.064e-05   2.242e-05    -4.296    -4.649    -0.354    -17.56
   CaHCO3+         2.554e-08   2.095e-08    -7.593    -7.679    -0.086      9.81
   CaCO3           1.522e-09   1.544e-09    -8.818    -8.811     0.006    -14.60
   CaOH+           5.491e-11   4.432e-11   -10.260   -10.353    -0.093     (0)  
Cl            6.373e-02
   Cl-             6.373e-02   5.086e-02    -1.196    -1.294    -0.098     18.28
   HCl             1.379e-09   1.468e-09    -8.860    -8.833     0.027     (0)  
H(0)          2.900e-40
   H2              1.450e-40   1.472e-40   -39.839   -39.832     0.006     28.61
Na            6.372e-02
   Na+             6.372e-02   5.167e-02    -1.196    -1.287    -0.091     -1.17
   NaHCO3          2.446e-06   2.530e-06    -5.612    -5.597     0.015     28.00
   NaOH            6.138e-19   6.229e-19   -18.212   -18.206     0.006     (0)  
O(0)          3.777e-13
   O2              1.888e-13   1.916e-13   -12.724   -12.718     0.006     30.40

------------------------------Saturation indices-------------------------------

  Phase               SI** log IAP   log K(298 K,   1 atm)

  Aragonite        -3.70    -12.04   -8.34  CaCO3
  Calcite          -3.56    -12.04   -8.48  CaCO3
  CH4(g)         -124.39   -127.20   -2.80  CH4
  CO2(g)           -3.39     -4.86   -1.47  CO2
  H2(g)           -36.73    -39.83   -3.10  H2
  H2O(g)           -1.50     -0.00    1.50  H2O
  Halite           -4.15     -2.58    1.57  NaCl
  O2(g)            -9.83    -12.72   -2.89  O2

**For a gas, SI = log10(fugacity). Fugacity = pressure * phi / 1 atm.
  For ideal gases, phi = 1.

Using mix 2.	

Mixture 2.	

	  0.000e+00 Solution 1	Solution after simulation 2.                           
	  1.000e+00 Solution 2	Solution after simulation 2.                           
	  0.000e+00 Solution 3	Solution after simulation 2.                           

-----------------------------Solution composition------------------------------

	Elements           Molality       Moles

	C                 2.047e-04   2.047e-04
	Ca                8.487e-05   8.487e-05
	Cl                1.965e-02   1.965e-02
	Na                1.965e-02   1.965e-02

----------------------------Description of solution----------------------------

                                       pH  =   7.007      Charge balance
                                       pe  =  11.439      Adjusted to redox equilibrium
      Specific Conductance (µS/cm,  25°C)  = 2279
                          Density (g/cm³)  =   0.99787
                               Volume (L)  =   1.00330
                        Viscosity (mPa s)  =   0.89217
                        Activity of water  =   0.999
                 Ionic strength (mol/kgw)  =   1.990e-02
                       Mass of water (kg)  =   1.000e+00
                 Total alkalinity (eq/kg)  =   1.720e-04
                       Total CO2 (mol/kg)  =   2.047e-04
                         Temperature (°C)  =  25.00
                  Electrical balance (eq)  =  -1.515e-13
 Percent error, 100*(Cat-|An|)/(Cat+|An|)  =  -0.00
                               Iterations  =   3
                                  Total H  = 1.110126e+02
                                  Total O  = 5.550680e+01

----------------------------Distribution of species----------------------------

                                               Log       Log       Log    mole V
   Species          Molality    Activity  Molality  Activity     Gamma   cm³/mol

   OH-             1.186e-07   1.029e-07    -6.926    -6.988    -0.062     -3.98
   H+              1.105e-07   9.834e-08    -6.956    -7.007    -0.051      0.00
   H2O             5.551e+01   9.993e-01     1.744    -0.000     0.000     18.07
C(-4)         0.000e+00
   CH4             0.000e+00   0.000e+00  -127.662  -127.660     0.002     35.46
C(4)          2.047e-04
   HCO3-           1.700e-04   1.489e-04    -3.770    -3.827    -0.058     24.72
   CO2             3.284e-05   3.294e-05    -4.484    -4.482     0.001     34.43
   NaHCO3          1.690e-06   1.707e-06    -5.772    -5.768     0.005     28.00
   CO3-2           1.206e-07   7.099e-08    -6.919    -7.149    -0.230     -3.60
   CaHCO3+         1.078e-07   9.471e-08    -6.967    -7.024    -0.056      9.75
   CaCO3           5.920e-09   5.947e-09    -8.228    -8.226     0.002    -14.60
   (CO2)2          1.982e-11   1.991e-11   -10.703   -10.701     0.002     68.87
Ca            8.487e-05
   Ca+2            8.475e-05   4.986e-05    -4.072    -4.302    -0.230    -17.82
   CaHCO3+         1.078e-07   9.471e-08    -6.967    -7.024    -0.056      9.75
   CaCO3           5.920e-09   5.947e-09    -8.228    -8.226     0.002    -14.60
   CaOH+           9.655e-11   8.409e-11   -10.015   -10.075    -0.060     (0)  
Cl            1.965e-02
   Cl-             1.965e-02   1.706e-02    -1.707    -1.768    -0.061     18.18
   HCl             5.668e-10   5.780e-10    -9.247    -9.238     0.008     (0)  
H(0)          0.000e+00
   H2              0.000e+00   0.000e+00   -40.044   -40.042     0.002     28.61
Na            1.965e-02
   Na+             1.965e-02   1.716e-02    -1.707    -1.766    -0.059     -1.32
   NaHCO3          1.690e-06   1.707e-06    -5.772    -5.768     0.005     28.00
   NaOH            1.756e-19   1.764e-19   -18.755   -18.753     0.002     (0)  
O(0)          1.006e-12
   O2              5.031e-13   5.054e-13   -12.298   -12.296     0.002     30.40

------------------------------Saturation indices-------------------------------

  Phase               SI** log IAP   log K(298 K,   1 atm)

  Aragonite        -3.11    -11.45   -8.34  CaCO3
  Calcite          -2.97    -11.45   -8.48  CaCO3
  CH4(g)         -124.86   -127.66   -2.80  CH4
  CO2(g)           -3.01     -4.48   -1.47  CO2
  H2(g)           -36.94    -40.04   -3.10  H2
  H2O(g)           -1.50     -0.00    1.50  H2O
  Halite           -5.10     -3.53    1.57  NaCl
  O2(g)            -9.40    -12.30   -2.89  O2

**For a gas, SI = log10(fugacity). Fugacity = pressure * phi / 1 atm.
  For ideal gases, phi = 1.

Using mix 3.	

Mixture 3.	

	  0.000e+00 Solution 2	Solution after simulation 2.                           
	  1.000e+00 Solution 3	Solution after simulation 2.                           
	  0.000e+00 Solution 4	Solution after simulation 2.                           

-----------------------------Solution composition------------------------------

	Elements           Molality       Moles

	C                 2.275e-04   2.275e-04
	Ca                1.024e-04   1.024e-04
	Cl                4.389e-03   4.389e-03
	Na                4.371e-03   4.371e-03

----------------------------Description of solution----------------------------

                                       pH  =   6.976      Charge balance
                                       pe  =  11.498      Adjusted to redox equilibrium
      Specific Conductance (µS/cm,  25°C)  = 545
                          Density (g/cm³)  =   0.99724
                               Volume (L)  =   1.00304
                        Viscosity (mPa s)  =   0.89077
                        Activity of water  =   1.000
                 Ionic strength (mol/kgw)  =   4.677e-03
                       Mass of water (kg)  =   1.000e+00
                 Total alkalinity (eq/kg)  =   1.866e-04
                       Total CO2 (mol/kg)  =   2.275e-04
                         Temperature (°C)  =  25.00
                  Electrical balance (eq)  =  -1.548e-13
 Percent error, 100*(Cat-|An|)/(Cat+|An|)  =  -0.00
                               Iterations  =   3
                                  Total H  = 1.110126e+02
                                  Total O  = 5.550686e+01

----------------------------Distribution of species----------------------------

                                               Log       Log       Log    mole V
   Species          Molality    Activity  Molality  Activity     Gamma   cm³/mol

   H+              1.129e-07   1.056e-07    -6.947    -6.976    -0.029      0.00
   OH-             1.032e-07   9.579e-08    -6.986    -7.019    -0.032     -4.07
   H2O             5.551e+01   9.998e-01     1.744    -0.000     0.000     18.07
C(-4)         0.000e+00
   CH4             0.000e+00   0.000e+00  -127.786  -127.785     0.000     35.46
C(4)          2.275e-04
   HCO3-           1.857e-04   1.729e-04    -3.731    -3.762    -0.031     24.60
   CO2             4.105e-05   4.108e-05    -4.387    -4.386     0.000     34.43
   NaHCO3          4.686e-07   4.698e-07    -6.329    -6.328     0.001     28.00
   CaHCO3+         1.817e-07   1.693e-07    -6.741    -6.771    -0.031      9.70
   CO3-2           1.022e-07   7.675e-08    -6.990    -7.115    -0.124     -3.91
   CaCO3           9.883e-09   9.894e-09    -8.005    -8.005     0.000    -14.60
   (CO2)2          3.094e-11   3.097e-11   -10.510   -10.509     0.000     68.87
Ca            1.024e-04
   Ca+2            1.022e-04   7.674e-05    -3.990    -4.115    -0.125    -18.02
   CaHCO3+         1.817e-07   1.693e-07    -6.741    -6.771    -0.031      9.70
   CaCO3           9.883e-09   9.894e-09    -8.005    -8.005     0.000    -14.60
   CaOH+           1.297e-10   1.205e-10    -9.887    -9.919    -0.032     (0)  
Cl            4.389e-03
   Cl-             4.389e-03   4.076e-03    -2.358    -2.390    -0.032     18.11
   HCl             1.476e-10   1.483e-10    -9.831    -9.829     0.002     (0)  
H(0)          0.000e+00
   H2              0.000e+00   0.000e+00   -40.098   -40.097     0.000     28.61
Na            4.371e-03
   Na+             4.370e-03   4.064e-03    -2.359    -2.391    -0.032     -1.42
   NaHCO3          4.686e-07   4.698e-07    -6.329    -6.328     0.001     28.00
   NaOH            3.889e-20   3.893e-20   -19.410   -19.410     0.000     (0)  
O(0)          1.304e-12
   O2              6.518e-13   6.525e-13   -12.186   -12.185     0.000     30.40

------------------------------Saturation indices-------------------------------

  Phase               SI** log IAP   log K(298 K,   1 atm)

  Aragonite        -2.89    -11.23   -8.34  CaCO3
  Calcite          -2.75    -11.23   -8.48  CaCO3
  CH4(g)         -124.98   -127.79   -2.80  CH4
  CO2(g)           -2.92     -4.39   -1.47  CO2
  H2(g)           -37.00    -40.10   -3.10  H2
  H2O(g)           -1.50     -0.00    1.50  H2O
  Halite           -6.35     -4.78    1.57  NaCl
  O2(g)            -9.29    -12.19   -2.89  O2

**For a gas, SI = log10(fugacity). Fugacity = pressure * phi / 1 atm.
  For ideal gases, phi = 1.

Using mix 4.	

Mixture 4.	

	  0.000e+00 Solution 3	Solution after simulation 2.                           
	  1.000e+00 Solution 4	Solution after simulation 2.                           
	  0.000e+00 Solution 5	Solution after simulation 2.                           

-----------------------------Solution composition------------------------------

	Elements           Molality       Moles

	C                 2.323e-04   2.323e-04
	Ca                1.078e-04   1.078e-04
	Cl                7.608e-04   7.608e-04
	Na                7.342e-04   7.342e-04

----------------------------Description of solution----------------------------

                                       pH  =   6.974      Charge balance
                                       pe  =  11.482      Adjusted to redox equilibrium
      Specific Conductance (µS/cm,  25°C)  = 112
                          Density (g/cm³)  =   0.99709
                               Volume (L)  =   1.00298
                        Viscosity (mPa s)  =   0.89035
                        Activity of water  =   1.000
                 Ionic strength (mol/kgw)  =   1.057e-03
                       Mass of water (kg)  =   1.000e+00
                 Total alkalinity (eq/kg)  =   1.890e-04
                       Total CO2 (mol/kg)  =   2.323e-04
                         Temperature (°C)  =  25.00
                  Electrical balance (eq)  =   1.242e-12
 Percent error, 100*(Cat-|An|)/(Cat+|An|)  =   0.00
                               Iterations  =   3
                                  Total H  = 1.110126e+02
                                  Total O  = 5.550687e+01

----------------------------Distribution of species----------------------------

                                               Log       Log       Log    mole V
   Species          Molality    Activity  Molality  Activity     Gamma   cm³/mol

   H+              1.101e-07   1.063e-07    -6.958    -6.974    -0.015      0.00
   OH-             9.880e-08   9.523e-08    -7.005    -7.021    -0.016     -4.11
   H2O             5.551e+01   1.000e+00     1.744    -0.000     0.000     18.07
C(-4)         0.000e+00
   CH4             0.000e+00   0.000e+00  -127.619  -127.619     0.000     35.46
C(4)          2.323e-04
   HCO3-           1.885e-04   1.818e-04    -3.725    -3.740    -0.016     24.55
   CO2             4.344e-05   4.345e-05    -4.362    -4.362     0.000     34.43
   CaHCO3+         2.237e-07   2.159e-07    -6.650    -6.666    -0.016      9.67
   CO3-2           9.268e-08   8.022e-08    -7.033    -7.096    -0.063     -4.07
   NaHCO3          8.599e-08   8.604e-08    -7.066    -7.065     0.000     28.00
   CaCO3           1.254e-08   1.254e-08    -7.902    -7.902     0.000    -14.60
   (CO2)2          3.464e-11   3.465e-11   -10.460   -10.460     0.000     68.87
Ca            1.078e-04
   Ca+2            1.075e-04   9.306e-05    -3.968    -4.031    -0.063    -18.14
   CaHCO3+         2.237e-07   2.159e-07    -6.650    -6.666    -0.016      9.67
   CaCO3           1.254e-08   1.254e-08    -7.902    -7.902     0.000    -14.60
   CaOH+           1.507e-10   1.453e-10    -9.822    -9.838    -0.016     (0)  
Cl            7.608e-04
   Cl-             7.608e-04   7.333e-04    -3.119    -3.135    -0.016     18.08
   HCl             2.682e-11   2.685e-11   -10.572   -10.571     0.000     (0)  
H(0)          0.000e+00
   H2              0.000e+00   0.000e+00   -40.062   -40.062     0.000     28.61
Na            7.342e-04
   Na+             7.341e-04   7.079e-04    -3.134    -3.150    -0.016     -1.48
   NaHCO3          8.599e-08   8.604e-08    -7.066    -7.065     0.000     28.00
   NaOH            6.739e-21   6.741e-21   -20.171   -20.171     0.000     (0)  
O(0)          1.108e-12
   O2              5.540e-13   5.542e-13   -12.256   -12.256     0.000     30.40

------------------------------Saturation indices-------------------------------

  Phase               SI** log IAP   log K(298 K,   1 atm)

  Aragonite        -2.79    -11.13   -8.34  CaCO3
  Calcite          -2.65    -11.13   -8.48  CaCO3
  CH4(g)         -124.82   -127.62   -2.80  CH4
  CO2(g)           -2.89     -4.36   -1.47  CO2
  H2(g)           -36.96    -40.06   -3.10  H2
  H2O(g)           -1.50     -0.00    1.50  H2O
  Halite           -7.85     -6.28    1.57  NaCl
  O2(g)            -9.36    -12.26   -2.89  O2

**For a gas, SI = log10(fugacity). Fugacity = pressure * phi / 1 atm.
  For ideal gases, phi = 1.

Using mix 5.	

Mixture 5.	

	  0.000e+00 Solution 4	Solution after simulation 2.                           
	  1.000e+00 Solution 5	Solution after simulation 2.                           
	  0.000e+00 Solution 6	Solution after simulation 2.                           

-----------------------------Solution composition------------------------------

	Elements           Molality       Moles

	C                 2.353e-04   2.353e-04
	Ca                1.058e-04   1.058e-04
	Cl                1.117e-04   1.117e-04
	Na                9.155e-05   9.155e-05

----------------------------Description of solution----------------------------

                                       pH  =   6.980      Charge balance
                                       pe  =  11.433      Adjusted to redox equilibrium
      Specific Conductance (µS/cm,  25°C)  = 33
                          Density (g/cm³)  =   0.99706
                               Volume (L)  =   1.00297
                        Viscosity (mPa s)  =   0.89029
                        Activity of water  =   1.000
                 Ionic strength (mol/kgw)  =   4.085e-04
                       Mass of water (kg)  =   1.000e+00
                 Total alkalinity (eq/kg)  =   1.914e-04
                       Total CO2 (mol/kg)  =   2.353e-04
                         Temperature (°C)  =  25.00
                  Electrical balance (eq)  =  -1.263e-12
 Percent error, 100*(Cat-|An|)/(Cat+|An|)  =  -0.00
                               Iterations  =   4
                                  Total H  = 1.110126e+02
                                  Total O  = 5.550688e+01

----------------------------Distribution of species----------------------------

                                               Log       Log       Log    mole V
   Species          Molality    Activity  Molality  Activity     Gamma   cm³/mol

   H+              1.071e-07   1.047e-07    -6.970    -6.980    -0.010      0.00
   OH-             9.893e-08   9.666e-08    -7.005    -7.015    -0.010     -4.12
   H2O             5.551e+01   1.000e+00     1.744    -0.000     0.000     18.07
C(-4)         0.000e+00
   CH4             0.000e+00   0.000e+00  -127.268  -127.268     0.000     35.46
C(4)          2.353e-04
   HCO3-           1.910e-04   1.866e-04    -3.719    -3.729    -0.010     24.54
   CO2             4.394e-05   4.394e-05    -4.357    -4.357     0.000     34.43
   CaHCO3+         2.345e-07   2.293e-07    -6.630    -6.640    -0.010      9.66
   CO3-2           9.162e-08   8.359e-08    -7.038    -7.078    -0.040     -4.12
   CaCO3           1.352e-08   1.352e-08    -7.869    -7.869     0.000    -14.60
   NaHCO3          1.116e-08   1.116e-08    -7.952    -7.952     0.000     28.00
   (CO2)2          3.543e-11   3.544e-11   -10.451   -10.451     0.000     68.87
Ca            1.058e-04
   Ca+2            1.055e-04   9.627e-05    -3.977    -4.016    -0.040    -18.18
   CaHCO3+         2.345e-07   2.293e-07    -6.630    -6.640    -0.010      9.66
   CaCO3           1.352e-08   1.352e-08    -7.869    -7.869     0.000    -14.60
   CaOH+           1.562e-10   1.526e-10    -9.806    -9.816    -0.010     (0)  
Cl            1.117e-04
   Cl-             1.117e-04   1.091e-04    -3.952    -3.962    -0.010     18.06
   HCl             3.934e-12   3.936e-12   -11.405   -11.405     0.000     (0)  
H(0)          2.117e-40
   H2              1.059e-40   1.059e-40   -39.975   -39.975     0.000     28.61
Na            9.155e-05
   Na+             9.153e-05   8.945e-05    -4.038    -4.048    -0.010     -1.49
   NaHCO3          1.116e-08   1.116e-08    -7.952    -7.952     0.000     28.00
   NaOH            8.646e-22   8.647e-22   -21.063   -21.063     0.000     (0)  
O(0)          7.436e-13
   O2              3.718e-13   3.719e-13   -12.430   -12.430     0.000     30.40

------------------------------Saturation indices-------------------------------

  Phase               SI** log IAP   log K(298 K,   1 atm)

  Aragonite        -2.76    -11.09   -8.34  CaCO3
  Calcite          -2.61    -11.09   -8.48  CaCO3
  CH4(g)         -124.47   -127.27   -2.80  CH4
  CO2(g)           -2.89     -4.36   -1.47  CO2
  H2(g)           -36.87    -39.98   -3.10  H2
  H2O(g)           -1.50     -0.00    1.50  H2O
  Halite           -9.58     -8.01    1.57  NaCl
  O2(g)            -9.54    -12.43   -2.89  O2

**For a gas, SI = log10(fugacity). Fugacity = pressure * phi / 1 atm.
  For ideal gases, phi = 1.

Using mix 6.	

Mixture 6.	

	  0.000e+00 Solution 5	Solution after simulation 2.                           
	  1.000e+00 Solution 6	Solution after simulation 2.                           
	  0.000e+00 Solution 7	Solution after simulation 2.                           

-----------------------------Solution composition------------------------------

	Elements           Molality       Moles

	C                 2.409e-04   2.409e-04
	Ca                1.017e-04   1.017e-04
	Cl                1.474e-05   1.474e-05
	Na                8.301e-06   8.301e-06

----------------------------Description of solution----------------------------

                                       pH  =   6.993      Charge balance
                                       pe  =  11.388      Adjusted to redox equilibrium
      Specific Conductance (µS/cm,  25°C)  = 21
                          Density (g/cm³)  =   0.99706
                               Volume (L)  =   1.00297
                        Viscosity (mPa s)  =   0.89032
                        Activity of water  =   1.000
                 Ionic strength (mol/kgw)  =   3.132e-04
                       Mass of water (kg)  =   1.000e+00
                 Total alkalinity (eq/kg)  =   1.971e-04
                       Total CO2 (mol/kg)  =   2.409e-04
                         Temperature (°C)  =  25.00
                  Electrical balance (eq)  =  -1.293e-12
 Percent error, 100*(Cat-|An|)/(Cat+|An|)  =  -0.00
                               Iterations  =   4
                                  Total H  = 1.110126e+02
                                  Total O  = 5.550690e+01

----------------------------Distribution of species----------------------------

                                               Log       Log       Log    mole V
   Species          Molality    Activity  Molality  Activity     Gamma   cm³/mol

   H+              1.036e-07   1.016e-07    -6.985    -6.993    -0.009      0.00
   OH-             1.017e-07   9.966e-08    -6.993    -7.001    -0.009     -4.12
   H2O             5.551e+01   1.000e+00     1.744    -0.000     0.000     18.07
C(-4)         0.000e+00
   CH4             0.000e+00   0.000e+00  -127.016  -127.016     0.000     35.46
C(4)          2.409e-04
   HCO3-           1.966e-04   1.927e-04    -3.706    -3.715    -0.009     24.53
   CO2             4.399e-05   4.400e-05    -4.357    -4.357     0.000     34.43
   CaHCO3+         2.348e-07   2.302e-07    -6.629    -6.638    -0.009      9.66
   CO3-2           9.644e-08   8.897e-08    -7.016    -7.051    -0.035     -4.13
   CaCO3           1.399e-08   1.399e-08    -7.854    -7.854     0.000    -14.60
   NaHCO3          1.048e-09   1.048e-09    -8.980    -8.980     0.000     28.00
   (CO2)2          3.553e-11   3.553e-11   -10.449   -10.449     0.000     68.87
Ca            1.017e-04
   Ca+2            1.015e-04   9.363e-05    -3.994    -4.029    -0.035    -18.19
   CaHCO3+         2.348e-07   2.302e-07    -6.629    -6.638    -0.009      9.66
   CaCO3           1.399e-08   1.399e-08    -7.854    -7.854     0.000    -14.60
   CaOH+           1.561e-10   1.530e-10    -9.806    -9.815    -0.009     (0)  
Cl            1.474e-05
   Cl-             1.474e-05   1.445e-05    -4.831    -4.840    -0.009     18.06
   HCl             5.052e-13   5.054e-13   -12.297   -12.296     0.000     (0)  
H(0)          2.446e-40
   H2              1.223e-40   1.223e-40   -39.913   -39.913     0.000     28.61
Na            8.301e-06
   Na+             8.300e-06   8.134e-06    -5.081    -5.090    -0.009     -1.50
   NaHCO3          1.048e-09   1.048e-09    -8.980    -8.980     0.000     28.00
   NaOH            8.105e-23   8.106e-23   -22.091   -22.091     0.000     (0)  
O(0)          5.572e-13
   O2              2.786e-13   2.786e-13   -12.555   -12.555     0.000     30.40

------------------------------Saturation indices-------------------------------

  Phase               SI** log IAP   log K(298 K,   1 atm)

  Aragonite        -2.74    -11.08   -8.34  CaCO3
  Calcite          -2.60    -11.08   -8.48  CaCO3
  CH4(g)         -124.21   -127.02   -2.80  CH4
  CO2(g)           -2.89     -4.36   -1.47  CO2
  H2(g)           -36.81    -39.91   -3.10  H2
  H2O(g)           -1.50     -0.00    1.50  H2O
  Halite          -11.50     -9.93    1.57  NaCl
  O2(g)            -9.66    -12.55   -2.89  O2

**For a gas, SI = log10(fugacity). Fugacity = pressure * phi / 1 atm.
  For ideal gases, phi = 1.

Using mix 7.	

Mixture 7.	

	  0.000e+00 Solution 6	Solution after simulation 2.                           
	  1.000e+00 Solution 7	Solution after simulation 2.                           
	  0.000e+00 Solution 8	Solution after simulation 2.                           

-----------------------------Solution composition------------------------------

	Elements           Molality       Moles

	C                 2.434e-04   2.434e-04
	Ca                1.003e-04   1.003e-04
	Cl                1.670e-06   1.670e-06
	Na                5.824e-07   5.824e-07

----------------------------Description of solution----------------------------

                                       pH  =   6.999      Charge balance
                                       pe  =  11.374      Adjusted to redox equilibrium
      Specific Conductance (µS/cm,  25°C)  = 20
                          Density (g/cm³)  =   0.99706
                               Volume (L)  =   1.00297
                        Viscosity (mPa s)  =   0.89032
                        Activity of water  =   1.000
                 Ionic strength (mol/kgw)  =   3.011e-04
                       Mass of water (kg)  =   1.000e+00
                 Total alkalinity (eq/kg)  =   1.995e-04
                       Total CO2 (mol/kg)  =   2.434e-04
                         Temperature (°C)  =  25.00
                  Electrical balance (eq)  =  -1.295e-12
 Percent error, 100*(Cat-|An|)/(Cat+|An|)  =  -0.00
                               Iterations  =   4
                                  Total H  = 1.110126e+02
                                  Total O  = 5.550690e+01

----------------------------Distribution of species----------------------------

                                               Log       Log       Log    mole V
   Species          Molality    Activity  Molality  Activity     Gamma   cm³/mol

   OH-             1.030e-07   1.009e-07    -6.987    -6.996    -0.009     -4.12
   H+              1.022e-07   1.003e-07    -6.990    -6.999    -0.008      0.00
   H2O             5.551e+01   1.000e+00     1.744    -0.000     0.000     18.07
C(-4)         0.000e+00
   CH4             0.000e+00   0.000e+00  -126.950  -126.950     0.000     35.46
C(4)          2.434e-04
   HCO3-           1.990e-04   1.951e-04    -3.701    -3.710    -0.009     24.53
   CO2             4.399e-05   4.399e-05    -4.357    -4.357     0.000     34.43
   CaHCO3+         2.347e-07   2.301e-07    -6.630    -6.638    -0.009      9.66
   CO3-2           9.876e-08   9.125e-08    -7.005    -7.040    -0.034     -4.13
   CaCO3           1.417e-08   1.417e-08    -7.849    -7.849     0.000    -14.60
   NaHCO3          7.446e-11   7.447e-11   -10.128   -10.128     0.000     28.00
   (CO2)2          3.552e-11   3.552e-11   -10.450   -10.450     0.000     68.87
Ca            1.003e-04
   Ca+2            1.000e-04   9.242e-05    -4.000    -4.034    -0.034    -18.19
   CaHCO3+         2.347e-07   2.301e-07    -6.630    -6.638    -0.009      9.66
   CaCO3           1.417e-08   1.417e-08    -7.849    -7.849     0.000    -14.60
   CaOH+           1.560e-10   1.530e-10    -9.807    -9.815    -0.009     (0)  
Cl            1.670e-06
   Cl-             1.670e-06   1.637e-06    -5.777    -5.786    -0.009     18.06
   HCl             5.653e-14   5.654e-14   -13.248   -13.248     0.000     (0)  
H(0)          2.541e-40
   H2              1.271e-40   1.271e-40   -39.896   -39.896     0.000     28.61
Na            5.824e-07
   Na+             5.823e-07   5.709e-07    -6.235    -6.243    -0.009     -1.50
   NaHCO3          7.446e-11   7.447e-11   -10.128   -10.128     0.000     28.00
   NaOH            5.762e-24   5.762e-24   -23.239   -23.239     0.000     (0)  
O(0)          5.163e-13
   O2              2.582e-13   2.582e-13   -12.588   -12.588     0.000     30.40

------------------------------Saturation indices-------------------------------

  Phase               SI** log IAP   log K(298 K,   1 atm)

  Aragonite        -2.74    -11.07   -8.34  CaCO3
  Calcite          -2.59    -11.07   -8.48  CaCO3
  CH4(g)         -124.15   -126.95   -2.80  CH4
[...]
                                  Total O  = 2.807163e+01

----------------------------Distribution of species----------------------------

                                               Log       Log       Log    mole V
   Species          Molality    Activity  Molality  Activity     Gamma   cm³/mol

   H+              1.029e-07   1.009e-07    -6.988    -6.996    -0.009      0.00
   OH-             1.023e-07   1.003e-07    -6.990    -6.999    -0.009     -4.12
   H2O             1.097e+02   1.000e+00     2.040    -0.000     0.000     18.07
C(-4)         0.000e+00
   CH4             0.000e+00   0.000e+00  -134.539  -134.538     0.000     35.46
C(4)          2.422e-04
   HCO3-           1.978e-04   1.939e-04    -3.704    -3.712    -0.009     24.53
   CO2             4.399e-05   4.399e-05    -4.357    -4.357     0.000     34.43
   CaHCO3+         2.389e-07   2.341e-07    -6.622    -6.631    -0.009      9.66
   CO3-2           9.761e-08   9.010e-08    -7.011    -7.045    -0.035     -4.13
   CaCO3           1.433e-08   1.433e-08    -7.844    -7.844     0.000    -14.60
   (CO2)2          3.552e-11   3.553e-11   -10.449   -10.449     0.000     68.87
   NaHCO3          1.317e-11   1.317e-11   -10.881   -10.880     0.000     28.00
Ca            1.028e-04
   Ca+2            1.025e-04   9.465e-05    -3.989    -4.024    -0.035    -18.19
   CaHCO3+         2.389e-07   2.341e-07    -6.622    -6.631    -0.009      9.66
   CaCO3           1.433e-08   1.433e-08    -7.844    -7.844     0.000    -14.60
   CaOH+           1.588e-10   1.557e-10    -9.799    -9.808    -0.009     (0)  
Cl            7.378e-06
   Cl-             7.378e-06   7.231e-06    -5.132    -5.141    -0.009     18.06
   HCl             2.513e-13   2.514e-13   -12.600   -12.600     0.000     (0)  
H(0)          0.000e+00
   H2              0.000e+00   0.000e+00   -41.793   -41.793     0.000     28.61
Na            1.037e-07
   Na+             1.037e-07   1.016e-07    -6.984    -6.993    -0.009     -1.50
   NaHCO3          1.317e-11   1.317e-11   -10.881   -10.880     0.000     28.00
   NaOH            1.019e-24   1.019e-24   -23.992   -23.992     0.000     (0)  
O(0)          3.214e-09
   O2              1.607e-09   1.607e-09    -8.794    -8.794     0.000     30.40

------------------------------Saturation indices-------------------------------

  Phase               SI** log IAP   log K(298 K,   1 atm)

  Aragonite        -2.73    -11.07   -8.34  CaCO3
  Calcite          -2.59    -11.07   -8.48  CaCO3
  CH4(g)         -131.74   -134.54   -2.80  CH4
  CO2(g)           -2.89     -4.36   -1.47  CO2
  H2(g)           -38.69    -41.79   -3.10  H2
  H2O(g)           -1.50     -0.00    1.50  H2O
  Halite          -13.70    -12.13    1.57  NaCl
  O2(g)            -5.90     -8.79   -2.89  O2

**For a gas, SI = log10(fugacity). Fugacity = pressure * phi / 1 atm.
  For ideal gases, phi = 1.

Using mix 8.	
Using surface 8.	

Mixture 8.	

	  0.000e+00 Solution 7	Solution after simulation 4.                           
	  1.000e+00 Solution 8	Solution after simulation 4.                           
	  0.000e+00 Solution 9	Solution after simulation 4.                           

------------------------------Surface composition------------------------------

Diffuse Double Layer Surface-Complexation Model

Su            
	  1.803e-11  Surface + diffuse layer charge, eq
	 -1.000e+00  Surface charge, eq
	 -2.894e+00  sigma, C/m²
	 -4.087e-01  psi, V
	  1.591e+01  -F*psi/RT
	  8.102e+06  exp(-F*psi/RT)
	  3.334e+04  specific area, m²/g
	  3.334e+04  m² for   1.000e+00 g

	Water in diffuse layer: 4.991e-01 kg, 100.0% of total DDL-water.
	Radius of total pore:   5.997e-08 m; of free pore: 4.244e-08 m.

	Total moles in diffuse layer (excluding water), Donnan calculation.
	Donnan Layer potential, psi_DL = -1.183e-01 V.
	Boltzmann factor, exp(-psi_DL * F / RT) = 1.001e+02 (= c_DL / c_free if z is +1).

	Element       	     Moles
	C             	  3.4697e-05
	Ca            	  5.0000e-01
	Cl            	  3.3892e-09
	H             	  1.7841e-05
	Na            	  2.9969e-07
	O             	  8.2146e-05

Su            
	  1.000e+00  moles
	                                   Mole                     Log
	Species               Moles    Fraction    Molality    Molality

	Su-               1.000e+00       1.000   1.998e+00       0.301

-----------------------------Solution composition------------------------------

	Elements           Molality       Moles

	C                 2.437e-04   1.220e-04
	Ca                1.003e-04   5.019e-05
	Cl                6.796e-07   3.402e-07
	Na                6.001e-09   3.004e-09

----------------------------Description of solution----------------------------

                                       pH  =   7.000      Charge balance
                                       pe  =  12.317      Adjusted to redox equilibrium
      Specific Conductance (µS/cm,  25°C)  = 20
                          Density (g/cm³)  =   0.99706
                               Volume (L)  =   0.50204
                        Viscosity (mPa s)  =   0.89032
                        Activity of water  =   1.000
                 Ionic strength (mol/kgw)  =   3.005e-04
                       Mass of water (kg)  =   5.006e-01
                 Total alkalinity (eq/kg)  =   1.998e-04
                       Total CO2 (mol/kg)  =   2.437e-04
                         Temperature (°C)  =  25.00
                  Electrical balance (eq)  =   2.072e-08
 Percent error, 100*(Cat-|An|)/(Cat+|An|)  =   0.01
                               Iterations  =   0 (21 overall)
                                  Total H  = 5.556763e+01
                                  Total O  = 2.778411e+01

----------------------------Distribution of species----------------------------

                                               Log       Log       Log    mole V
   Species          Molality    Activity  Molality  Activity     Gamma   cm³/mol

   OH-             1.032e-07   1.011e-07    -6.986    -6.995    -0.009     -4.12
   H+              1.020e-07   1.001e-07    -6.991    -7.000    -0.008      0.00
   H2O             1.109e+02   1.000e+00     2.045    -0.000     0.000     18.07
C(-4)         0.000e+00
   CH4             0.000e+00   0.000e+00  -134.498  -134.497     0.000     35.46
C(4)          2.437e-04
   HCO3-           1.994e-04   1.955e-04    -3.700    -3.709    -0.009     24.53
   CO2             4.399e-05   4.399e-05    -4.357    -4.357     0.000     34.43
   CaHCO3+         2.351e-07   2.305e-07    -6.629    -6.637    -0.009      9.66
   CO3-2           9.911e-08   9.158e-08    -7.004    -7.038    -0.034     -4.13
   CaCO3           1.422e-08   1.422e-08    -7.847    -7.847     0.000    -14.60
   (CO2)2          3.551e-11   3.552e-11   -10.450   -10.450     0.000     68.87
   NaHCO3          7.686e-13   7.687e-13   -12.114   -12.114     0.000     28.00
Ca            1.003e-04
   Ca+2            1.000e-04   9.242e-05    -4.000    -4.034    -0.034    -18.19
   CaHCO3+         2.351e-07   2.305e-07    -6.629    -6.637    -0.009      9.66
   CaCO3           1.422e-08   1.422e-08    -7.847    -7.847     0.000    -14.60
   CaOH+           1.563e-10   1.532e-10    -9.806    -9.815    -0.009     (0)  
Cl            6.796e-07
   Cl-             6.796e-07   6.662e-07    -6.168    -6.176    -0.009     18.06
   HCl             2.296e-14   2.297e-14   -13.639   -13.639     0.000     (0)  
H(0)          0.000e+00
   H2              0.000e+00   0.000e+00   -41.783   -41.783     0.000     28.61
Na            6.001e-09
   Na+             6.000e-09   5.882e-09    -8.222    -8.230    -0.009     -1.50
   NaHCO3          7.686e-13   7.687e-13   -12.114   -12.114     0.000     28.00
   NaOH            5.948e-26   5.948e-26   -25.226   -25.226     0.000     (0)  
O(0)          3.066e-09
   O2              1.533e-09   1.533e-09    -8.814    -8.814     0.000     30.40

------------------------------Saturation indices-------------------------------

  Phase               SI** log IAP   log K(298 K,   1 atm)

  Aragonite        -2.74    -11.07   -8.34  CaCO3
  Calcite          -2.59    -11.07   -8.48  CaCO3
  CH4(g)         -131.70   -134.50   -2.80  CH4
  CO2(g)           -2.89     -4.36   -1.47  CO2
  H2(g)           -38.68    -41.78   -3.10  H2
  H2O(g)           -1.50     -0.00    1.50  H2O
  Halite          -15.98    -14.41    1.57  NaCl
  O2(g)            -5.92     -8.81   -2.89  O2

**For a gas, SI = log10(fugacity). Fugacity = pressure * phi / 1 atm.
  For ideal gases, phi = 1.

Using mix 9.	
Using surface 9.	

Mixture 9.	

	  0.000e+00 Solution 8	Solution after simulation 4.                           
	  1.000e+00 Solution 9	Solution after simulation 4.                           
	  0.000e+00 Solution 10	Solution after simulation 4.                           

------------------------------Surface composition------------------------------

Diffuse Double Layer Surface-Complexation Model

Su            
	  1.134e-10  Surface + diffuse layer charge, eq
	 -1.000e+00  Surface charge, eq
	 -2.894e+00  sigma, C/m²
	 -4.087e-01  psi, V
	  1.591e+01  -F*psi/RT
	  8.122e+06  exp(-F*psi/RT)
	  3.334e+04  specific area, m²/g
	  3.334e+04  m² for   1.000e+00 g

	Water in diffuse layer: 4.996e-01 kg, 100.0% of total DDL-water.
	Radius of total pore:   5.997e-08 m; of free pore: 4.242e-08 m.

	Total moles in diffuse layer (excluding water), Donnan calculation.
	Donnan Layer potential, psi_DL = -1.183e-01 V.
	Boltzmann factor, exp(-psi_DL * F / RT) = 1.001e+02 (= c_DL / c_free if z is +1).

	Element       	     Moles
	C             	  3.4723e-05
	Ca            	  5.0000e-01
	Cl            	  2.5627e-10
	H             	  1.7849e-05
	Na            	  1.4605e-08
	O             	  8.2200e-05

Su            
	  1.000e+00  moles
	                                   Mole                     Log
	Species               Moles    Fraction    Molality    Molality

	Su-               1.000e+00       1.000   2.000e+00       0.301

-----------------------------Solution composition------------------------------

	Elements           Molality       Moles

	C                 2.438e-04   1.219e-04
	Ca                1.000e-04   5.002e-05
	Cl                5.137e-08   2.569e-08
	Na                2.919e-10   1.460e-10

----------------------------Description of solution----------------------------

                                       pH  =   7.000      Charge balance
                                       pe  =  12.317      Adjusted to redox equilibrium
      Specific Conductance (µS/cm,  25°C)  = 20
                          Density (g/cm³)  =   0.99706
                               Volume (L)  =   0.50154
                        Viscosity (mPa s)  =   0.89032
                        Activity of water  =   1.000
                 Ionic strength (mol/kgw)  =   2.998e-04
                       Mass of water (kg)  =   5.001e-01
                 Total alkalinity (eq/kg)  =   2.000e-04
                       Total CO2 (mol/kg)  =   2.438e-04
                         Temperature (°C)  =  25.00
                  Electrical balance (eq)  =   2.084e-08
 Percent error, 100*(Cat-|An|)/(Cat+|An|)  =   0.01
                               Iterations  =   0 (21 overall)
                                  Total H  = 5.551234e+01
                                  Total O  = 2.775646e+01

----------------------------Distribution of species----------------------------

                                               Log       Log       Log    mole V
   Species          Molality    Activity  Molality  Activity     Gamma   cm³/mol

   OH-             1.032e-07   1.012e-07    -6.986    -6.995    -0.009     -4.12
   H+              1.020e-07   1.000e-07    -6.991    -7.000    -0.008      0.00
   H2O             1.110e+02   1.000e+00     2.045    -0.000     0.000     18.07
C(-4)         0.000e+00
   CH4             0.000e+00   0.000e+00  -134.499  -134.499     0.000     35.46
C(4)          2.438e-04
   HCO3-           1.995e-04   1.956e-04    -3.700    -3.709    -0.009     24.53
   CO2             4.399e-05   4.399e-05    -4.357    -4.357     0.000     34.43
   CaHCO3+         2.347e-07   2.301e-07    -6.630    -6.638    -0.009      9.66
   CO3-2           9.924e-08   9.171e-08    -7.003    -7.038    -0.034     -4.13
   CaCO3           1.421e-08   1.421e-08    -7.848    -7.848     0.000    -14.60
   (CO2)2          3.552e-11   3.552e-11   -10.450   -10.449     0.000     68.87
   NaHCO3          3.742e-14   3.743e-14   -13.427   -13.427     0.000     28.00
Ca            1.000e-04
   Ca+2            9.978e-05   9.221e-05    -4.001    -4.035    -0.034    -18.19
   CaHCO3+         2.347e-07   2.301e-07    -6.630    -6.638    -0.009      9.66
   CaCO3           1.421e-08   1.421e-08    -7.848    -7.848     0.000    -14.60
   CaOH+           1.561e-10   1.530e-10    -9.807    -9.815    -0.009     (0)  
Cl            5.137e-08
   Cl-             5.137e-08   5.036e-08    -7.289    -7.298    -0.009     18.06
   HCl             1.735e-15   1.735e-15   -14.761   -14.761     0.000     (0)  
H(0)          0.000e+00
   H2              0.000e+00   0.000e+00   -41.783   -41.783     0.000     28.61
Na            2.919e-10
   Na+             2.919e-10   2.862e-10    -9.535    -9.543    -0.009     -1.50
   NaHCO3          3.742e-14   3.743e-14   -13.427   -13.427     0.000     28.00
   NaOH            2.896e-27   2.896e-27   -26.538   -26.538     0.000     (0)  
O(0)          3.072e-09
   O2              1.536e-09   1.536e-09    -8.814    -8.814     0.000     30.40

------------------------------Saturation indices-------------------------------

  Phase               SI** log IAP   log K(298 K,   1 atm)

  Aragonite        -2.74    -11.07   -8.34  CaCO3
  Calcite          -2.59    -11.07   -8.48  CaCO3
  CH4(g)         -131.70   -134.50   -2.80  CH4
  CO2(g)           -2.89     -4.36   -1.47  CO2
  H2(g)           -38.68    -41.78   -3.10  H2
  H2O(g)           -1.50     -0.00    1.50  H2O
  Halite          -18.41    -16.84    1.57  NaCl
  O2(g)            -5.92     -8.81   -2.89  O2

**For a gas, SI = log10(fugacity). Fugacity = pressure * phi / 1 atm.
  For ideal gases, phi = 1.

Using mix 10.	
Using surface 10.	

Mixture 10.	

	  0.000e+00 Solution 9	Solution after simulation 4.                           
	  1.000e+00 Solution 10	Solution after simulation 4.                           
	  0.000e+00 Solution 11	                                                       

------------------------------Surface composition------------------------------

Diffuse Double Layer Surface-Complexation Model

Su            
	  1.287e-10  Surface + diffuse layer charge, eq
	 -1.000e+00  Surface charge, eq
	 -2.894e+00  sigma, C/m²
	 -4.088e-01  psi, V
	  1.591e+01  -F*psi/RT
	  8.123e+06  exp(-F*psi/RT)
	  3.334e+04  specific area, m²/g
	  3.334e+04  m² for   1.000e+00 g

	Water in diffuse layer: 4.996e-01 kg, 100.0% of total DDL-water.
	Radius of total pore:   5.997e-08 m; of free pore: 4.241e-08 m.

	Total moles in diffuse layer (excluding water), Donnan calculation.
	Donnan Layer potential, psi_DL = -1.184e-01 V.
	Boltzmann factor, exp(-psi_DL * F / RT) = 1.002e+02 (= c_DL / c_free if z is +1).

	Element       	     Moles
	C             	  3.4725e-05
	Ca            	  5.0000e-01
	Cl            	  1.6948e-11
	H             	  1.7849e-05
	Na            	  6.1384e-10
	O             	  8.2205e-05

Su            
	  1.000e+00  moles
	                                   Mole                     Log
	Species               Moles    Fraction    Molality    Molality

	Su-               1.000e+00       1.000   2.000e+00       0.301

-----------------------------Solution composition------------------------------

	Elements           Molality       Moles

	C                 2.439e-04   1.219e-04
	Ca                1.000e-04   5.001e-05
	Cl                3.397e-09   1.699e-09
	Na                1.227e-11   6.134e-12

----------------------------Description of solution----------------------------

                                       pH  =   7.000      Charge balance
                                       pe  =  12.317      Adjusted to redox equilibrium
      Specific Conductance (µS/cm,  25°C)  = 20
                          Density (g/cm³)  =   0.99706
                               Volume (L)  =   0.50150
                        Viscosity (mPa s)  =   0.89032
                        Activity of water  =   1.000
                 Ionic strength (mol/kgw)  =   2.997e-04
                       Mass of water (kg)  =   5.000e-01
                 Total alkalinity (eq/kg)  =   2.000e-04
                       Total CO2 (mol/kg)  =   2.439e-04
                         Temperature (°C)  =  25.00
                  Electrical balance (eq)  =   2.081e-08
 Percent error, 100*(Cat-|An|)/(Cat+|An|)  =   0.01
                               Iterations  =   0 (21 overall)
                                  Total H  = 5.550804e+01
                                  Total O  = 2.775432e+01

----------------------------Distribution of species----------------------------

                                               Log       Log       Log    mole V
   Species          Molality    Activity  Molality  Activity     Gamma   cm³/mol

   OH-             1.032e-07   1.012e-07    -6.986    -6.995    -0.009     -4.12
   H+              1.020e-07   1.000e-07    -6.992    -7.000    -0.008      0.00
   H2O             1.110e+02   1.000e+00     2.045    -0.000     0.000     18.07
C(-4)         0.000e+00
   CH4             0.000e+00   0.000e+00  -134.499  -134.499     0.000     35.46
C(4)          2.439e-04
   HCO3-           1.995e-04   1.956e-04    -3.700    -3.709    -0.009     24.53
   CO2             4.399e-05   4.399e-05    -4.357    -4.357     0.000     34.43
   CaHCO3+         2.347e-07   2.301e-07    -6.630    -6.638    -0.009      9.66
   CO3-2           9.925e-08   9.172e-08    -7.003    -7.038    -0.034     -4.13
   CaCO3           1.420e-08   1.421e-08    -7.848    -7.848     0.000    -14.60
   (CO2)2          3.552e-11   3.552e-11   -10.450   -10.449     0.000     68.87
   NaHCO3          1.573e-15   1.573e-15   -14.803   -14.803     0.000     28.00
Ca            1.000e-04
   Ca+2            9.977e-05   9.219e-05    -4.001    -4.035    -0.034    -18.19
   CaHCO3+         2.347e-07   2.301e-07    -6.630    -6.638    -0.009      9.66
   CaCO3           1.420e-08   1.421e-08    -7.848    -7.848     0.000    -14.60
   CaOH+           1.560e-10   1.530e-10    -9.807    -9.815    -0.009     (0)  
Cl            3.397e-09
   Cl-             3.397e-09   3.330e-09    -8.469    -8.478    -0.009     18.06
   HCl             1.147e-16   1.147e-16   -15.940   -15.940     0.000     (0)  
H(0)          0.000e+00
   H2              0.000e+00   0.000e+00   -41.783   -41.783     0.000     28.61
Na            1.227e-11
   Na+             1.227e-11   1.203e-11   -10.911   -10.920    -0.009     -1.50
   NaHCO3          1.573e-15   1.573e-15   -14.803   -14.803     0.000     28.00
   NaOH            1.217e-28   1.217e-28   -27.915   -27.915     0.000     (0)  
O(0)          3.072e-09
   O2              1.536e-09   1.536e-09    -8.814    -8.814     0.000     30.40

------------------------------Saturation indices-------------------------------

  Phase               SI** log IAP   log K(298 K,   1 atm)

  Aragonite        -2.74    -11.07   -8.34  CaCO3
  Calcite          -2.59    -11.07   -8.48  CaCO3
  CH4(g)         -131.70   -134.50   -2.80  CH4
  CO2(g)           -2.89     -4.36   -1.47  CO2
  H2(g)           -38.68    -41.78   -3.10  H2
  H2O(g)           -1.50     -0.00    1.50  H2O
  Halite          -20.97    -19.40    1.57  NaCl
  O2(g)            -5.92     -8.81   -2.89  O2

**For a gas, SI = log10(fugacity). Fugacity = pressure * phi / 1 atm.
  For ideal gases, phi = 1.

------------------
End of simulation.
------------------

------------------------------------
Reading input data for simulation 5.
------------------------------------

