WARNING: Database file from DATABASE keyword is used; command line argument ignored.
   Input file: densities
  Output file: densities.out
Database file: ../database/Amm.dat

------------------
Reading data base.
------------------

	SOLUTION_MASTER_SPECIES
	SOLUTION_SPECIES
	PHASES
	EXCHANGE_MASTER_SPECIES
	EXCHANGE_SPECIES
	SURFACE_MASTER_SPECIES
	SURFACE_SPECIES
	RATES
	END
------------------------------------
Reading input data for simulation 1.
------------------------------------

	DATABASE ../database/Amm.dat
	SOLUTION_SPREAD
	    temp 10.5          # The temperature (Celsius) that is given to samples with undefined temperature. Default: 25 oC.
	    ph 7.0           # idem for pH
	    units mg/L       # Define units in (mol or g) / (L or kgw or kgs). Prefix m for milli, or u for micro. ppm = mg/kgs, ppt = ug/kgs, ppb. Default: mmol/kgw.
	temperature	pH	Na	K	Ca	Mg	Fe	Mn	Amm	Si	Cl	S(6)	Alkalinity	N(+5)	N(+3)	P	F
													as HCO3
	10.5	7.6	175	32.5	116	77.1	7.47	1.26	43.599	34.026	75.14771584	37.14420022	1491.02518	0	0	5.1714	0.271333289
	10.6	6.9	151	12.5	158	18.6	26.2	1.04	19.045	35.524	114.5908989	0.249298794	879.9115614	0	0	5.661	0.209536358
	10.5	7	277	15	180	31.1	18.7	1.04	25.054	34.454	355.5183013	0.920349583	1056.505674	0.894889382	0	5.8446	0.187078126
	10.3	7	453	24.7	216	48.7	13.7	1.23	19.951	31.886	595.9271654	3.202831548	1283.390757	3.35813214	0	5.2632	0.160350459
	10.5	7	594	34.3	280	68	14.4	1.64	16.3215	31.244	976.7996213	2.350156627	1290.14255	0	0	4.9266	0.147423573
	10.5	6.9	444	32.2	318	90.7	15.3	0.817	16.5485	24.182	836.9294588	0.22282209	944.3562299	39.62619233	11.83899293	3.8862	0.098741566
	7.7	7	135	38.5	114	102	3.81	1.69	53.974	37.236	50.02430738	30.78754015	1308.107241	0	0	8.262	0.244943651
	10.1	6.9	134	12.7	172	19.7	27.8	1.25	21.3595	37.022	123.8117716	9.86053952	1027.711209	1.0362	0.1377	4.9572	0.226766194
	10.3	7	270	15	191	31.2	21.2	1.33	25.632	34.24	363.3910367	0.467199623	1118.763599	0.070183961	0	5.202	0.188793823
	10.3	6.8	379	17.5	304	44.3	23	1.5	17.188	35.524	668.2669286	0.272167756	984.9994486	0.314222971	0	4.9572	0.167859943
	10.6	7	600	34.3	281	69.4	13.7	1.4	15.5735	32.1	860.5274893	10.85192596	1300.572874	107.3351201	113.7943674	5.8446	0.162480956
	9.9	7.1	144	33.5	135	69.9	4.89	2.51	44.6135	28.248	77.87190417	64.72155012	1311.134255	0.1112	0.1125	0.37638	0.260334016
	10.7	7	163	15	158	24.6	25.4	1.85	18.4795	35.738	117.2973125	25.02617436	915.9306296	0.1035	0	5.967	0.228947739
	10.8	6.9	267	12.4	197	24.1	31.2	1.24	21.144	34.24	340.5026932	44.53054989	990.273712	0.1492	0	5.3856	0.192266351
	10.6	7	492	26.6	221	49.8	15.7	1.2	15.41275	31.672	629.6875752	26.72605759	1143.879533	7.437159049	0.406291821	4.8348	0.215814422
	10.6	6.9	614	34.1	288	70	16.6	1.47	16.746	31.244	1000.82765	19.20207914	1357.142827	1.552997541	0	4.9878	0.167806757
	10.8	6.87	148	12.2	150	18.6	25.7	0.965	20.256	42.586	124.9708267	3.219930451	938.6825165	0	0	6.8238	0.287884837
	10.5	7.03	278	14.3	171	31.4	19.1	1.02	25.5675	40.018	305.5602642	0.442532837	960.1565989	1.776078738	1.033866569	6.7626	0.293534438
	11	6.91	458	23.7	207	48.8	15	1.1	17.454	37.022	732.188275	0.361794198	1132.305497	1.131085797	0.506630962	5.1408	0.307085732
	11.3	6.93	624	33.4	251	64.5	13.4	1.35	16.175	36.166	933.6964237	10.75034302	1200.821617	0.365253726	0.181143719	5.049	0.393543816
	7	7.06	11.74	0.975	14.3	2.04	0.137	0.0192	0.00501	1.89604	18.99329136	6.018668155	38.98125641	3.107744481	0.059164261	0.3519	0.083527672
	11.38	7.04	144	11.3	153	17.8	21.1	0.928	20.9585	43.228	126.1563	0.9733	896.973844	0.1093	0	7.2522	0.3632
	10.9	6.97	169	8.87	98	17.8	10.8	0.582	16.2215	29.96	210.4241	3.8227	574.9441311	1.3384	0.1855	6.5484	0.4156
	11.1	7.33	128	6.46	39.3	8.52	3.68	0.213	4.6955	17.7192	136.7004	10.4259	334.4246347	2.4827	0.2732	3.7638	0.5601
	11.03	6.96	442	23.2	163	41	8.28	0.816	11.9955	31.03	681.3949	4.2161	910.951872	0	0	5.3856	0.324
	7	4.02	2.021	0.0913	0.834	0.291	0.0335	0.00399	0.87015	0.048364	3.2686	2.1073	0.01	2.4706	0.0535	0.0149328	0.0248
	7	7.17	4.287	0.407	5.49	0.569	0.0402	0.00266	0.00501	0.54142	7.1165	2.5388	29.60922722	2.3	0.0555	0.149634	0.0387
	10.2	7.1	72.4	5.49	60.3	6.71	8.14	0.383	11.0865	28.89	52.8162	5.1711	366.7985858	1.8385	0.1456	6.273	0.33
	9.9	7.14	47.23	3.13	25.2	4.54	2.43	0.157	6.764	13.0112	50.4034	5.7325	173.0064644	1.2116	0.2599	3.3048	0.4001
	9.8	7.15	26.97	3.08	17.7	3.16	1.32	0.0834	2.3666	7.0834	33.5394	6.7168	95.17275513	1.7587	0.0278	0.95472	0.2395
	9.8	7.3	53.78	3.67	15	3.32	0.854	0.0743	0.00501	11.6416	46.7057	6.4113	140.3736871	1.8606	0.043	2.5092	0.6033
	8.6	7.24	23.21	2.54	21.4	2.17	2.53	0.138	5.6005	12.2194	15.4481	4.5928	137.5266428	0.9958	0.0657	3.03552	0.5443
	8.3	7.18	8.014	1.77	10.4	1.63	0.498	0.0565	4.5795	4.8792	10.8698	6.068	57.84612501	1.1395	0.1654	1.0098	0.178
	8	6.85	428	29.7	312	88.9	15.7	0.783	0	39.483	979.7518244	1.019800558	1043.006986	0.231622936	0	3.672	0.299826356
	2.6	6.42	6.651	0.429	3.39	0.617	0.0209	0.0098	0	0.455178	10.14577476	2.237270851	20.30777224	1.096398988	0	0.226746	0.065282496
	7.6	7.7	11.55	2.1	19.4	1.83	0.982	0.102	0	10.58016	9.998925817	7.109955689	106.8647865	0.027656428	0.015160908	1.8513	0.242453391
	7.1	7.4	6.286	1.08	13.9	1.97	0.223	0.0555	0	5.7138	9.805580427	6.818016802	52.37682765	0.051296078	0.04972777	0.68238	0.099645683
	8.5	7.4	10.2	1.84	17	3.02	0.429	0.0644	0	5.58754	12.80072369	16.76407149	67.37546674	0.053425051	0	0.49878	0.118607773
	8.1	7.4	6.815	2.73	16.3	3.32	0.176	0.048	3.7773	5.2537	12.029614	16.12018877	56.61111711	0	0.006772258	0.38556	0.089808791
	11.6	6.9	135	11	162	19.4	38.7	1.12	1.68865	54.9766	109.7316	0.309337453	870.6709882	0.047833504	0	11.0772	0.231427826
	11.6	6.9	266	11.4	176	29.6	28.9	1.24	0.39685	51.0604	364.321299	0.27724803	943.1452543	1.02949351	0	9.8838	0.253678755
	11.5	6.8	423	14.1	286	43.2	33.8	1.49	1.75765	52.7082	759.8898982	12.88145038	1074.119024	0.962312513	0	7.4664	0.209514967
	11.4	6.9	586	25	235	57.6	16.1	1.16	7.67575	47.3796	922.0980292	3.788319614	1209.37986	0.4725975	0	7.2522	0.303089257
	6.9	7.7	6.294	0.686	23.7	2.38	0.061	0.147	0.34745	1.079202	9.765955567	12.46130629	90.22921449	0.256253468	0.238315513	0.039168	0.189304455
	9	4.4	6.183	0.234	1.21	0.593	0.00725	0.00911	4.00755	0.049541	10.39181361	4.167206501	0.01	3.256776619	0.070335326	0.0126378	0.041026306
	8.4	7.3	6.258	0.881	35.3	3.41	0.00523	0.0123	0	1.459052	8.01271295	4.092214837	383.2018891	16.11998961	0	0.086292	0.121722606
		6.7	2.64	0.34	10.1	0.841	0.0123	0.00178	0	0.57352	4.9801	4.1031	40.12747213	4.5951	0.1204	0.074358	0.0482
	7.6	7.77	11.2	2.14	20.9	1.99	1.04	0.108	1.00395	12.1766	10.5138	8.2544	114.1393583	0.0369	0	1.97064	0.2937
	7.1	7.41	7.86	1.2	18.3	2.71	0.309	0.0782	9.7915	7.1262	11.3951	8.3341	66.90665179	0.0413	0.0183	0.70992	0.0862
	8.5	7.16	9.06	1.75	17	3.13	0.447	0.0811	9.16	7.5328	10.8783	15.9967	64.88144041	0.0179	0	0.62118	0.0796
	8.1	7.44	88.2	6.43	114	24.8	2.12	0.388	12.94	8.1748	225.1072	10.8962	336.8809255	34.7034	0	0.40698	0.1905
	8.1	6.77	455	25.1	308	88.3	21.2	0.823	8.381	38.734	1046.6074	0.6881	1065.797185	0	0	5.1408	0.2095
	11.9	6.82	134	11.1	159	19.6	37.2	1.12	0.6864	57.352	110.9886	0.5208	870.4329509	0	0	12.1482	0.2234
	11.7	6.95	251	11.2	171	28.4	25.8	1.21	1.56245	53.5	261.7667		934.6220585	0	0	10.1898	0.1437
	11.8	6.84	405	13.6	273	42.2	31.5	1.43	0.9816	54.998	743.9436	10.3068	1053.70713	0	0	7.9254	0.1491
	11.7	6.86	538	23.7	213	53.2	15.9	1.07	0	49.648	881.3277	7.0137	1144.582217	0	0	8.262	0.2419
	11	7.53	1.82	0.279	22	1.45	0.0253	0.193	0.86255	1.40598	1.5889	11.2364	68.4790077	0	0	0.085374	0.0354
	10	7.83	2.1	0.341	27.1	1.77	0.0287	0.214	5.17445	1.60714	2.324	11.2083	93.96615717	0.025	0	0.063036	0.0311
	9.1	7.35	4.57	0.444	34.4	2.1	0.0696	0.359	1.78595	1.68204	8.7511	17.7388	111.9832525	0	0	0.054162	0.0571
	9.5	7.11	164	1.79	215	21.3	0.138	2.78	0.87165	3.0602	422.3559	10.8276	506.0127501	0	0	0.094554	0.0291
	USER_GRAPH
	-plot_csv_file densities.dat
	-initial_solutions true
	-headings PHREEQC-3
	 -axis_scale x_axis 0 60 10 10 # minimum 0, maximum 350, major tics at 50, minor tics at 25
	 -axis_scale y_axis 0.999 1.003 5e-4
	-start
	 30 plot_xy cell_no, rho, line_width = 0, color = Aqua, symbol = Circle, symbol_size = 9
	-end
	USER_PRINT
	start # start of BASIC lines
	10 print RHO
	end # end of BASIC lines
	END
-------------------------------------------
Beginning of initial solution calculations.
-------------------------------------------

Initial solution 1.	

----------------------------------User print-----------------------------------

  1.0012e+00 

-----------------------------Solution composition------------------------------

	Elements           Molality       Moles

	Alkalinity        2.449e-02   2.449e-02
	Amm               2.426e-03   2.426e-03
	Ca                2.900e-03   2.900e-03
	Cl                2.124e-03   2.124e-03
	F                 1.431e-05   1.431e-05
	Fe                1.340e-04   1.340e-04
	K                 8.329e-04   8.329e-04
	Mg                3.178e-03   3.178e-03
	Mn                2.298e-05   2.298e-05
	Na                7.628e-03   7.628e-03
	P                 1.673e-04   1.673e-04
	S(6)              3.875e-04   3.875e-04
	Si                5.675e-04   5.675e-04

----------------------------Description of solution----------------------------

                                       pH  =   7.600    
                                       pe  =   4.000    
       Specific Conductance (uS/cm, 10 oC) = 1504
                          Density (g/cm3)  =   1.00123
                               Volume (L)  =   1.00224
                        Activity of water  =   0.999
                           Ionic strength  =   2.975e-02
                       Mass of water (kg)  =   1.000e+00
                    Total carbon (mol/kg)  =   2.558e-02
                       Total CO2 (mol/kg)  =   2.558e-02
                      Temperature (deg C)  =  10.50
                  Electrical balance (eq)  =  -4.236e-03
 Percent error, 100*(Cat-|An|)/(Cat+|An|)  =  -8.79
                               Iterations  =  11
                                  Total H  = 1.110414e+02
                                  Total O  = 5.558609e+01

----------------------------Distribution of species----------------------------

                                               Log       Log       Log    mole V
   Species          Molality    Activity  Molality  Activity     Gamma   cm3/mol

   OH-             1.443e-07   1.223e-07    -6.841    -6.912    -0.072     -4.82
   H+              2.864e-08   2.512e-08    -7.543    -7.600    -0.057      0.00
   H2O             5.551e+01   9.992e-01     1.744    -0.000     0.000     18.02
Amm           2.426e-03
   AmmH+           2.406e-03   2.023e-03    -2.619    -2.694    -0.075     17.43
   Amm             1.550e-05   1.560e-05    -4.810    -4.807     0.003     24.07
   AmmHSO4-        4.970e-06   4.242e-06    -5.304    -5.372    -0.069     (0)  
C(4)          2.558e-02
   HCO3-           2.318e-02   1.992e-02    -1.635    -1.701    -0.066     23.39
   CO2             1.429e-03   1.439e-03    -2.845    -2.842     0.003     33.44
   MgHCO3+         3.903e-04   3.321e-04    -3.409    -3.479    -0.070      5.02
   CaHCO3+         2.960e-04   2.553e-04    -3.529    -3.593    -0.064      9.05
   NaHCO3          7.829e-05   7.883e-05    -4.106    -4.103     0.003      2.13
   FeHCO3+         5.044e-05   4.304e-05    -4.297    -4.366    -0.069     (0)  
   CaCO3           4.846e-05   4.879e-05    -4.315    -4.312     0.003    -14.65
   CO3-2           4.800e-05   2.616e-05    -4.319    -4.582    -0.264     -6.87
   MgCO3           2.947e-05   2.967e-05    -4.531    -4.528     0.003    -17.07
   FeCO3           1.347e-05   1.356e-05    -4.871    -4.868     0.003     (0)  
   MnHCO3+         7.971e-06   6.830e-06    -5.098    -5.166    -0.067     (0)  
   MnCO3           7.941e-06   7.995e-06    -5.100    -5.097     0.003     (0)  
   NaCO3-          1.708e-06   1.458e-06    -5.767    -5.836    -0.069     -2.21
Ca            2.900e-03
   Ca+2            2.495e-03   1.361e-03    -2.603    -2.866    -0.263    -18.07
   CaHCO3+         2.960e-04   2.553e-04    -3.529    -3.593    -0.064      9.05
   CaCO3           4.846e-05   4.879e-05    -4.315    -4.312     0.003    -14.65
   CaSO4           3.489e-05   3.513e-05    -4.457    -4.454     0.003      6.82
   CaHPO4          2.331e-05   2.347e-05    -4.632    -4.630     0.003     (0)  
   CaPO4-          1.930e-06   1.658e-06    -5.714    -5.780    -0.066     (0)  
   CaH2PO4+        5.568e-07   4.784e-07    -6.254    -6.320    -0.066     (0)  
   CaOH+           1.053e-08   8.983e-09    -7.978    -8.047    -0.069     (0)  
   CaHSO4+         5.666e-12   4.835e-12   -11.247   -11.316    -0.069     (0)  
Cl            2.124e-03
   Cl-             2.124e-03   1.804e-03    -2.673    -2.744    -0.071     17.52
   FeCl+           6.308e-08   5.383e-08    -7.200    -7.269    -0.069     (0)  
   MnCl+           3.301e-08   2.828e-08    -7.481    -7.548    -0.067      5.77
   MnCl2           2.212e-11   2.228e-11   -10.655   -10.652     0.003     (0)  
   MnCl3-          1.292e-14   1.107e-14   -13.889   -13.956    -0.067     (0)  
   FeCl+2          5.582e-16   3.009e-16   -15.253   -15.522    -0.268     (0)  
   FeCl2+          4.589e-18   3.932e-18   -17.338   -17.405    -0.067     (0)  
   FeCl3           7.046e-22   7.094e-22   -21.152   -21.149     0.003     (0)  
F             1.431e-05
   F-              1.329e-05   1.126e-05    -4.877    -4.948    -0.072     -1.42
   MgF+            9.818e-07   8.384e-07    -6.008    -6.077    -0.069    -10.52
   NaF             4.155e-08   4.184e-08    -7.381    -7.378     0.003      6.58
   FeF+            2.852e-09   2.434e-09    -8.545    -8.614    -0.069     (0)  
   MnF+            3.499e-10   2.998e-10    -9.456    -9.523    -0.067     (0)  
   HF              3.272e-10   3.294e-10    -9.485    -9.482     0.003     11.67
   FeF+2           2.348e-13   1.266e-13   -12.629   -12.898    -0.268     (0)  
   FeF2+           5.525e-14   4.735e-14   -13.258   -13.325    -0.067     (0)  
   HF2-            1.450e-14   1.238e-14   -13.839   -13.907    -0.069     21.25
   FeF3            7.969e-16   8.024e-16   -15.099   -15.096     0.003     (0)  
   SiF6-2          5.290e-33   2.852e-33   -32.277   -32.545    -0.268     41.71
Fe(2)         1.074e-04
   FeHCO3+         5.044e-05   4.304e-05    -4.297    -4.366    -0.069     (0)  
   Fe+2            3.906e-05   2.161e-05    -4.408    -4.665    -0.257    -22.91
   FeCO3           1.347e-05   1.356e-05    -4.871    -4.868     0.003     (0)  
   FeHPO4          3.574e-06   3.598e-06    -5.447    -5.444     0.003     (0)  
   FeSO4           4.703e-07   4.735e-07    -6.328    -6.325     0.003     (0)  
   FeH2PO4+        2.323e-07   1.996e-07    -6.634    -6.700    -0.066     (0)  
   FeOH+           1.016e-07   8.705e-08    -6.993    -7.060    -0.067     (0)  
   FeCl+           6.308e-08   5.383e-08    -7.200    -7.269    -0.069     (0)  
   FeF+            2.852e-09   2.434e-09    -8.545    -8.614    -0.069     (0)  
   Fe(OH)2         7.776e-12   7.830e-12   -11.109   -11.106     0.003     (0)  
   FeHSO4+         9.000e-14   7.681e-14   -13.046   -13.115    -0.069     (0)  
   Fe(OH)3-        1.163e-14   9.963e-15   -13.935   -14.002    -0.067     (0)  
Fe(3)         2.663e-05
   Fe(OH)3         1.815e-05   1.827e-05    -4.741    -4.738     0.003     (0)  
   Fe(OH)2+        8.064e-06   6.928e-06    -5.093    -5.159    -0.066     (0)  
   Fe(OH)4-        4.181e-07   3.593e-07    -6.379    -6.445    -0.066     (0)  
   FeOH+2          1.739e-09   9.376e-10    -8.760    -9.028    -0.268     (0)  
   FeF+2           2.348e-13   1.266e-13   -12.629   -12.898    -0.268     (0)  
   FeH2PO4+2       8.150e-14   4.441e-14   -13.089   -13.352    -0.264     (0)  
   FeHPO4+         7.156e-14   6.132e-14   -13.145   -13.212    -0.067     (0)  
   FeF2+           5.525e-14   4.735e-14   -13.258   -13.325    -0.067     (0)  
   Fe+3            2.920e-14   8.954e-15   -13.535   -14.048    -0.513     (0)  
   FeSO4+          1.331e-14   1.141e-14   -13.876   -13.943    -0.067     (0)  
   FeF3            7.969e-16   8.024e-16   -15.099   -15.096     0.003     (0)  
   Fe2(OH)2+4      5.611e-16   4.441e-17   -15.251   -16.352    -1.102     (0)  
   FeCl+2          5.582e-16   3.009e-16   -15.253   -15.522    -0.268     (0)  
   Fe(SO4)2-       4.485e-17   3.828e-17   -16.348   -16.417    -0.069     (0)  
   Fe3(OH)4+5      1.381e-17   2.624e-19   -16.860   -18.581    -1.721     (0)  
   FeCl2+          4.589e-18   3.932e-18   -17.338   -17.405    -0.067     (0)  
   FeHSO4+2        1.507e-21   7.993e-22   -20.822   -21.097    -0.275     (0)  
   FeCl3           7.046e-22   7.094e-22   -21.152   -21.149     0.003     (0)  
H(0)          1.033e-26
   H2              5.163e-27   5.199e-27   -26.287   -26.284     0.003     28.62
K             8.329e-04
   K+              8.321e-04   7.060e-04    -3.080    -3.151    -0.071      8.53
   KSO4-           7.205e-07   6.190e-07    -6.142    -6.208    -0.066     (0)  
   KHPO4-          6.701e-08   5.757e-08    -7.174    -7.240    -0.066     (0)  
Mg            3.178e-03
   Mg+2            2.681e-03   1.485e-03    -2.572    -2.828    -0.257    -20.91
   MgHCO3+         3.903e-04   3.321e-04    -3.409    -3.479    -0.070      5.02
   MgSO4           3.801e-05   3.827e-05    -4.420    -4.417     0.003      5.15
   MgHPO4          3.440e-05   3.463e-05    -4.463    -4.460     0.003     (0)  
   MgCO3           2.947e-05   2.967e-05    -4.531    -4.528     0.003    -17.07
   MgPO4-          2.842e-06   2.442e-06    -5.546    -5.612    -0.066     (0)  
   MgF+            9.818e-07   8.384e-07    -6.008    -6.077    -0.069    -10.52
   MgH2PO4+        7.740e-07   6.651e-07    -6.111    -6.177    -0.066     (0)  
   MgOH+           6.261e-08   5.416e-08    -7.203    -7.266    -0.063     (0)  
Mn(2)         2.298e-05
   MnHCO3+         7.971e-06   6.830e-06    -5.098    -5.166    -0.067     (0)  
   MnCO3           7.941e-06   7.995e-06    -5.100    -5.097     0.003     (0)  
   Mn+2            6.954e-06   3.848e-06    -5.158    -5.415    -0.257    -16.54
   MnSO4           8.273e-08   8.329e-08    -7.082    -7.079     0.003      4.38
   MnCl+           3.301e-08   2.828e-08    -7.481    -7.548    -0.067      5.77
   MnOH+           1.326e-09   1.136e-09    -8.878    -8.945    -0.067     (0)  
   MnF+            3.499e-10   2.998e-10    -9.456    -9.523    -0.067     (0)  
   MnCl2           2.212e-11   2.228e-11   -10.655   -10.652     0.003     (0)  
   MnCl3-          1.292e-14   1.107e-14   -13.889   -13.956    -0.067     (0)  
   Mn(OH)3-        4.480e-18   3.839e-18   -17.349   -17.416    -0.067     (0)  
Mn(3)         4.188e-28
   Mn+3            4.188e-28   1.284e-28   -27.378   -27.891    -0.513     (0)  
Na            7.628e-03
   Na+             7.542e-03   6.457e-03    -2.123    -2.190    -0.067     -2.18
   NaHCO3          7.829e-05   7.883e-05    -4.106    -4.103     0.003      2.13
   NaSO4-          5.567e-06   4.783e-06    -5.254    -5.320    -0.066     18.48
   NaCO3-          1.708e-06   1.458e-06    -5.767    -5.836    -0.069     -2.21
   NaHPO4-         6.128e-07   5.265e-07    -6.213    -6.279    -0.066     (0)  
   NaF             4.155e-08   4.184e-08    -7.381    -7.378     0.003      6.58
   NaOH            7.844e-20   7.898e-20   -19.105   -19.102     0.003     (0)  
O(0)          0.000e+00
   O2              0.000e+00   0.000e+00   -44.734   -44.731     0.003     29.01
P             1.673e-04
   HPO4-2          7.756e-05   4.182e-05    -4.110    -4.379    -0.268      5.62
   MgHPO4          3.440e-05   3.463e-05    -4.463    -4.460     0.003     (0)  
   CaHPO4          2.331e-05   2.347e-05    -4.632    -4.630     0.003     (0)  
   H2PO4-          2.145e-05   1.843e-05    -4.669    -4.735    -0.066     30.18
   FeHPO4          3.574e-06   3.598e-06    -5.447    -5.444     0.003     (0)  
   MgPO4-          2.842e-06   2.442e-06    -5.546    -5.612    -0.066     (0)  
   CaPO4-          1.930e-06   1.658e-06    -5.714    -5.780    -0.066     (0)  
   MgH2PO4+        7.740e-07   6.651e-07    -6.111    -6.177    -0.066     (0)  
   NaHPO4-         6.128e-07   5.265e-07    -6.213    -6.279    -0.066     (0)  
   CaH2PO4+        5.568e-07   4.784e-07    -6.254    -6.320    -0.066     (0)  
   FeH2PO4+        2.323e-07   1.996e-07    -6.634    -6.700    -0.066     (0)  
   KHPO4-          6.701e-08   5.757e-08    -7.174    -7.240    -0.066     (0)  
   PO4-3           2.368e-09   5.535e-10    -8.626    -9.257    -0.631    -28.45
   FeH2PO4+2       8.150e-14   4.441e-14   -13.089   -13.352    -0.264     (0)  
   FeHPO4+         7.156e-14   6.132e-14   -13.145   -13.212    -0.067     (0)  
S(6)          3.875e-04
   SO4-2           3.028e-04   1.628e-04    -3.519    -3.788    -0.269     11.97
   MgSO4           3.801e-05   3.827e-05    -4.420    -4.417     0.003      5.15
   CaSO4           3.489e-05   3.513e-05    -4.457    -4.454     0.003      6.82
   NaSO4-          5.567e-06   4.783e-06    -5.254    -5.320    -0.066     18.48
   AmmHSO4-        4.970e-06   4.242e-06    -5.304    -5.372    -0.069     (0)  
   KSO4-           7.205e-07   6.190e-07    -6.142    -6.208    -0.066     (0)  
   FeSO4           4.703e-07   4.735e-07    -6.328    -6.325     0.003     (0)  
   MnSO4           8.273e-08   8.329e-08    -7.082    -7.079     0.003      4.38
   HSO4-           3.464e-10   2.956e-10    -9.460    -9.529    -0.069     39.07
   CaHSO4+         5.666e-12   4.835e-12   -11.247   -11.316    -0.069     (0)  
   FeHSO4+         9.000e-14   7.681e-14   -13.046   -13.115    -0.069     (0)  
   FeSO4+          1.331e-14   1.141e-14   -13.876   -13.943    -0.067     (0)  
   Fe(SO4)2-       4.485e-17   3.828e-17   -16.348   -16.417    -0.069     (0)  
   FeHSO4+2        1.507e-21   7.993e-22   -20.822   -21.097    -0.275     (0)  
Si            5.675e-04
   H4SiO4          5.652e-04   5.691e-04    -3.248    -3.245     0.003     53.60
   H3SiO4-         2.253e-06   1.917e-06    -5.647    -5.717    -0.070     27.53
   H2SiO4-2        3.401e-12   1.853e-12   -11.468   -11.732    -0.264     (0)  
   SiF6-2          5.290e-33   2.852e-33   -32.277   -32.545    -0.268     41.71

------------------------------Saturation indices-------------------------------

	Phase               SI   log IAP   log K(283 K,   1 atm)

	Amm(g)           -6.92     -4.81    2.12  Amm
	Anhydrite        -2.53     -6.65   -4.13  CaSO4
	Aragonite         0.81     -7.45   -8.26  CaCO3
	Calcite           0.96     -7.45   -8.41  CaCO3
	Chalcedony        0.48     -3.24   -3.73  SiO2
	Chrysotile       -3.46     30.63   34.09  Mg3Si2O5(OH)4
	CO2(g)           -1.57     -2.84   -1.27  CO2
	Dolomite          1.88    -14.86  -16.74  CaMg(CO3)2
	Fe(OH)3(a)        3.86      8.75    4.89  Fe(OH)3
	Fluorite         -1.97    -12.76  -10.79  CaF2
	Goethite          9.21      8.75   -0.46  FeOOH
	Gypsum           -2.06     -6.66   -4.59  CaSO4:2H2O
	H2(g)           -23.23    -26.28   -3.06  H2
	H2O(g)           -1.90     -0.00    1.90  H2O
	Halite           -6.49     -4.93    1.56  NaCl
	Hausmannite     -12.25     52.55   64.80  Mn3O4
	Hematite         20.36     17.50   -2.85  Fe2O3
	Hydroxyapatite    5.00      2.93   -2.07  Ca5(PO4)3OH
	Jarosite-K        0.76     -7.27   -8.04  KFe3(SO4)2(OH)6
	Manganite        -3.96     21.38   25.34  MnOOH
	Melanterite      -6.05     -8.46   -2.40  FeSO4:7H2O
	O2(g)           -41.96    -44.73   -2.77  O2
	Pyrochroite      -5.42      9.78   15.20  Mn(OH)2
	Pyrolusite      -10.84     32.98   43.82  MnO2:H2O
	Quartz            0.96     -3.24   -4.20  SiO2
	Rhodochrosite     1.08    -10.00  -11.08  MnCO3
	Sepiolite        -1.15     15.01   16.16  Mg2Si3O7.5OH:3H2O
	Sepiolite(d)     -3.65     15.01   18.66  Mg2Si3O7.5OH:3H2O
	Siderite          1.55     -9.25  -10.80  FeCO3
	SiO2(a)          -0.41     -3.24   -2.84  SiO2
	Sylvite          -6.64     -5.89    0.74  KCl
	Talc              1.00     24.14   23.14  Mg3Si4O10(OH)2
	Vivianite         3.49    -32.51  -36.00  Fe3(PO4)2:8H2O


Initial solution 2.	

----------------------------------User print-----------------------------------

  1.0008e+00 

-----------------------------Solution composition------------------------------

	Elements           Molality       Moles

	Alkalinity        1.444e-02   1.444e-02
	Amm               1.059e-03   1.059e-03
	Ca                3.948e-03   3.948e-03
	Cl                3.237e-03   3.237e-03
	F                 1.104e-05   1.104e-05
	Fe                4.698e-04   4.698e-04
	K                 3.201e-04   3.201e-04
	Mg                7.661e-04   7.661e-04
	Mn                1.896e-05   1.896e-05
	Na                6.577e-03   6.577e-03
	P                 1.830e-04   1.830e-04
	S(6)              2.599e-06   2.599e-06
	Si                5.921e-04   5.921e-04

----------------------------Description of solution----------------------------

                                       pH  =   6.900    
                                       pe  =   4.000    
       Specific Conductance (uS/cm, 10 oC) = 1128
                          Density (g/cm3)  =   1.00080
                               Volume (L)  =   1.00177
                        Activity of water  =   0.999
                           Ionic strength  =   2.202e-02
                       Mass of water (kg)  =   1.000e+00
                    Total carbon (mol/kg)  =   1.861e-02
                       Total CO2 (mol/kg)  =   1.861e-02
                      Temperature (deg C)  =  10.60
                  Electrical balance (eq)  =   4.821e-04
 Percent error, 100*(Cat-|An|)/(Cat+|An|)  =   1.39
                               Iterations  =  10
                                  Total H  = 1.110304e+02
                                  Total O  = 5.556087e+01

----------------------------Distribution of species----------------------------

                                               Log       Log       Log    mole V
   Species          Molality    Activity  Molality  Activity     Gamma   cm3/mol

   H+              1.417e-07   1.259e-07    -6.848    -6.900    -0.052      0.00
   OH-             2.849e-08   2.463e-08    -7.545    -7.609    -0.063     -4.84
   H2O             5.551e+01   9.994e-01     1.744    -0.000     0.000     18.02
Amm           1.059e-03
   AmmH+           1.058e-03   9.086e-04    -2.976    -3.042    -0.066     17.42
   Amm             1.403e-06   1.410e-06    -5.853    -5.851     0.002     24.08
   AmmHSO4-        1.593e-08   1.384e-08    -7.798    -7.859    -0.061     (0)  
C(4)          1.861e-02
   HCO3-           1.370e-02   1.197e-02    -1.863    -1.922    -0.059     23.36
   CO2             4.303e-03   4.325e-03    -2.366    -2.364     0.002     33.41
   CaHCO3+         2.734e-04   2.396e-04    -3.563    -3.620    -0.057      9.04
   FeHCO3+         1.945e-04   1.690e-04    -3.711    -3.772    -0.061     (0)  
   MgHCO3+         6.346e-05   5.503e-05    -4.197    -4.259    -0.062      5.01
   NaHCO3          4.154e-05   4.175e-05    -4.382    -4.379     0.002      2.13
   FeCO3           1.060e-05   1.065e-05    -4.975    -4.973     0.002     (0)  
   CaCO3           9.100e-06   9.146e-06    -5.041    -5.039     0.002    -14.65
   MnHCO3+         7.293e-06   6.359e-06    -5.137    -5.197    -0.060     (0)  
   CO3-2           5.398e-06   3.146e-06    -5.268    -5.502    -0.234     -6.94
   MnCO3           1.482e-06   1.489e-06    -5.829    -5.827     0.002     (0)  
   MgCO3           9.802e-07   9.851e-07    -6.009    -6.006     0.002    -17.07
   NaCO3-          1.790e-07   1.555e-07    -6.747    -6.808    -0.061     -2.25
Ca            3.948e-03
   Ca+2            3.636e-03   2.119e-03    -2.439    -2.674    -0.234    -18.12
   CaHCO3+         2.734e-04   2.396e-04    -3.563    -3.620    -0.057      9.04
   CaHPO4          2.551e-05   2.564e-05    -4.593    -4.591     0.002     (0)  
   CaCO3           9.100e-06   9.146e-06    -5.041    -5.039     0.002    -14.65
   CaH2PO4+        2.996e-06   2.618e-06    -5.523    -5.582    -0.059     (0)  
   CaPO4-          4.146e-07   3.622e-07    -6.382    -6.441    -0.059     (0)  
   CaSO4           3.957e-07   3.978e-07    -6.403    -6.400     0.002      6.82
   CaOH+           3.213e-09   2.792e-09    -8.493    -8.554    -0.061     (0)  
   CaHSO4+         3.161e-13   2.746e-13   -12.500   -12.561    -0.061     (0)  
Cl            3.237e-03
   Cl-             3.236e-03   2.802e-03    -2.490    -2.552    -0.063     17.51
   FeCl+           6.284e-07   5.460e-07    -6.202    -6.263    -0.061     (0)  
   MnCl+           7.803e-08   6.804e-08    -7.108    -7.167    -0.060      5.76
   MnCl2           8.280e-11   8.322e-11   -10.082   -10.080     0.002     (0)  
   MnCl3-          7.367e-14   6.423e-14   -13.133   -13.192    -0.060     (0)  
   FeCl+2          5.332e-15   3.082e-15   -14.273   -14.511    -0.238     (0)  
   FeCl2+          7.147e-17   6.231e-17   -16.146   -16.205    -0.060     (0)  
   FeCl3           1.737e-20   1.746e-20   -19.760   -19.758     0.002     (0)  
F             1.104e-05
   F-              1.078e-05   9.317e-06    -4.967    -5.031    -0.063     -1.43
   MgF+            2.203e-07   1.916e-07    -6.657    -6.718    -0.061    -10.53
   NaF             3.037e-08   3.052e-08    -7.518    -7.515     0.002      6.59
   FeF+            1.514e-08   1.315e-08    -7.820    -7.881    -0.061     (0)  
   HF              1.362e-09   1.368e-09    -8.866    -8.864     0.002     11.68
   MnF+            4.406e-10   3.842e-10    -9.356    -9.415    -0.060     (0)  
   FeF+2           1.193e-12   6.893e-13   -11.923   -12.162    -0.238     (0)  
   FeF2+           2.450e-13   2.136e-13   -12.611   -12.670    -0.060     (0)  
   HF2-            4.902e-14   4.259e-14   -13.310   -13.371    -0.061     21.24
   FeF3            2.981e-15   2.996e-15   -14.526   -14.523     0.002     (0)  
   SiF6-2          1.033e-30   5.967e-31   -29.986   -30.224    -0.238     41.64
Fe(2)         4.667e-04
   Fe+2            2.393e-04   1.411e-04    -3.621    -3.850    -0.229    -22.96
   FeHCO3+         1.945e-04   1.690e-04    -3.711    -3.772    -0.061     (0)  
   FeHPO4          1.637e-05   1.645e-05    -4.786    -4.784     0.002     (0)  
   FeCO3           1.060e-05   1.065e-05    -4.975    -4.973     0.002     (0)  
   FeH2PO4+        5.231e-06   4.571e-06    -5.281    -5.340    -0.059     (0)  
   FeCl+           6.284e-07   5.460e-07    -6.202    -6.263    -0.061     (0)  
   FeOH+           1.312e-07   1.144e-07    -6.882    -6.942    -0.060     (0)  
   FeSO4           2.239e-08   2.251e-08    -7.650    -7.648     0.002     (0)  
   FeF+            1.514e-08   1.315e-08    -7.820    -7.881    -0.061     (0)  
   Fe(OH)2         2.062e-12   2.073e-12   -11.686   -11.683     0.002     (0)  
   FeHSO4+         2.106e-14   1.829e-14   -13.677   -13.738    -0.061     (0)  
   Fe(OH)3-        6.044e-16   5.270e-16   -15.219   -15.278    -0.060     (0)  
Fe(3)         3.067e-06
   Fe(OH)2+        2.097e-06   1.832e-06    -5.678    -5.737    -0.059     (0)  
   Fe(OH)3         9.640e-07   9.689e-07    -6.016    -6.014     0.002     (0)  
   Fe(OH)4-        4.371e-09   3.819e-09    -8.359    -8.418    -0.059     (0)  
   FeOH+2          2.141e-09   1.237e-09    -8.669    -8.908    -0.238     (0)  
   FeH2PO4+2       1.755e-12   1.023e-12   -11.756   -11.990    -0.234     (0)  
   FeF+2           1.193e-12   6.893e-13   -11.923   -12.162    -0.238     (0)  
   FeHPO4+         3.246e-13   2.830e-13   -12.489   -12.548    -0.060     (0)  
   FeF2+           2.450e-13   2.136e-13   -12.611   -12.670    -0.060     (0)  
   Fe+3            1.710e-13   5.883e-14   -12.767   -13.230    -0.464     (0)  
   FeCl+2          5.332e-15   3.082e-15   -14.273   -14.511    -0.238     (0)  
   FeF3            2.981e-15   2.996e-15   -14.526   -14.523     0.002     (0)  
   Fe2(OH)2+4      7.312e-16   7.700e-17   -15.136   -16.114    -0.978     (0)  
   FeSO4+          6.258e-16   5.457e-16   -15.204   -15.263    -0.060     (0)  
   FeCl2+          7.147e-17   6.231e-17   -16.146   -16.205    -0.060     (0)  
   Fe3(OH)4+5      4.010e-18   1.191e-19   -17.397   -18.924    -1.527     (0)  
   FeCl3           1.737e-20   1.746e-20   -19.760   -19.758     0.002     (0)  
   Fe(SO4)2-       1.532e-20   1.331e-20   -19.815   -19.876    -0.061     (0)  
   FeHSO4+2        3.362e-22   1.915e-22   -21.473   -21.718    -0.244     (0)  
H(0)          2.596e-25
   H2              1.298e-25   1.304e-25   -24.887   -24.885     0.002     28.62
K             3.201e-04
   K+              3.201e-04   2.770e-04    -3.495    -3.558    -0.063      8.51
   KHPO4-          1.809e-08   1.581e-08    -7.742    -7.801    -0.059     (0)  
   KSO4-           2.023e-09   1.767e-09    -8.694    -8.753    -0.059     (0)  
Mg            7.661e-04
   Mg+2            6.939e-04   4.094e-04    -3.159    -3.388    -0.229    -20.97
   MgHCO3+         6.346e-05   5.503e-05    -4.197    -4.259    -0.062      5.01
   MgHPO4          6.663e-06   6.697e-06    -5.176    -5.174     0.002     (0)  
   MgCO3           9.802e-07   9.851e-07    -6.009    -6.006     0.002    -17.07
   MgH2PO4+        7.372e-07   6.441e-07    -6.132    -6.191    -0.059     (0)  
   MgF+            2.203e-07   1.916e-07    -6.657    -6.718    -0.061    -10.53
   MgPO4-          1.081e-07   9.441e-08    -6.966    -7.025    -0.059     (0)  
   MgSO4           7.646e-08   7.685e-08    -7.117    -7.114     0.002      5.15
   MgOH+           3.425e-09   3.009e-09    -8.465    -8.522    -0.056     (0)  
Mn(2)         1.896e-05
   Mn+2            1.010e-05   5.960e-06    -4.996    -5.225    -0.229    -16.58
   MnHCO3+         7.293e-06   6.359e-06    -5.137    -5.197    -0.060     (0)  
   MnCO3           1.482e-06   1.489e-06    -5.829    -5.827     0.002     (0)  
   MnCl+           7.803e-08   6.804e-08    -7.108    -7.167    -0.060      5.76
   MnSO4           9.343e-10   9.390e-10    -9.030    -9.027     0.002      4.38
   MnF+            4.406e-10   3.842e-10    -9.356    -9.415    -0.060     (0)  
   MnOH+           4.063e-10   3.543e-10    -9.391    -9.451    -0.060     (0)  
   MnCl2           8.280e-11   8.322e-11   -10.082   -10.080     0.002     (0)  
   MnCl3-          7.367e-14   6.423e-14   -13.133   -13.192    -0.060     (0)  
   Mn(OH)3-        5.420e-20   4.726e-20   -19.266   -19.326    -0.060     (0)  
Mn(3)         5.876e-28
   Mn+3            5.876e-28   2.021e-28   -27.231   -27.694    -0.464     (0)  
Na            6.577e-03
   Na+             6.535e-03   5.693e-03    -2.185    -2.245    -0.060     -2.20
   NaHCO3          4.154e-05   4.175e-05    -4.382    -4.379     0.002      2.13
   NaHPO4-         3.719e-07   3.250e-07    -6.430    -6.488    -0.059     (0)  
   NaCO3-          1.790e-07   1.555e-07    -6.747    -6.808    -0.061     -2.25
   NaSO4-          3.508e-08   3.065e-08    -7.455    -7.514    -0.059     18.40
   NaF             3.037e-08   3.052e-08    -7.518    -7.515     0.002      6.59
   NaOH            1.395e-20   1.402e-20   -19.855   -19.853     0.002     (0)  
O(0)          0.000e+00
   O2              0.000e+00   0.000e+00   -47.497   -47.494     0.002     29.02
P             1.830e-04
   H2PO4-          7.395e-05   6.462e-05    -4.131    -4.190    -0.059     30.18
   HPO4-2          5.066e-05   2.928e-05    -4.295    -4.533    -0.238      5.55
   CaHPO4          2.551e-05   2.564e-05    -4.593    -4.591     0.002     (0)  
   FeHPO4          1.637e-05   1.645e-05    -4.786    -4.784     0.002     (0)  
   MgHPO4          6.663e-06   6.697e-06    -5.176    -5.174     0.002     (0)  
   FeH2PO4+        5.231e-06   4.571e-06    -5.281    -5.340    -0.059     (0)  
   CaH2PO4+        2.996e-06   2.618e-06    -5.523    -5.582    -0.059     (0)  
   MgH2PO4+        7.372e-07   6.441e-07    -6.132    -6.191    -0.059     (0)  
   CaPO4-          4.146e-07   3.622e-07    -6.382    -6.441    -0.059     (0)  
   NaHPO4-         3.719e-07   3.250e-07    -6.430    -6.488    -0.059     (0)  
   MgPO4-          1.081e-07   9.441e-08    -6.966    -7.025    -0.059     (0)  
   KHPO4-          1.809e-08   1.581e-08    -7.742    -7.801    -0.059     (0)  
   PO4-3           2.797e-10   7.748e-11    -9.553   -10.111    -0.558    -28.63
   FeH2PO4+2       1.755e-12   1.023e-12   -11.756   -11.990    -0.234     (0)  
   FeHPO4+         3.246e-13   2.830e-13   -12.489   -12.548    -0.060     (0)  
S(6)          2.599e-06
   SO4-2           2.050e-06   1.182e-06    -5.688    -5.927    -0.239     11.91
   CaSO4           3.957e-07   3.978e-07    -6.403    -6.400     0.002      6.82
   MgSO4           7.646e-08   7.685e-08    -7.117    -7.114     0.002      5.15
   NaSO4-          3.508e-08   3.065e-08    -7.455    -7.514    -0.059     18.40
   FeSO4           2.239e-08   2.251e-08    -7.650    -7.648     0.002     (0)  
   AmmHSO4-        1.593e-08   1.384e-08    -7.798    -7.859    -0.061     (0)  
   KSO4-           2.023e-09   1.767e-09    -8.694    -8.753    -0.059     (0)  
   MnSO4           9.343e-10   9.390e-10    -9.030    -9.027     0.002      4.38
   HSO4-           1.241e-11   1.078e-11   -10.906   -10.967    -0.061     39.06
   CaHSO4+         3.161e-13   2.746e-13   -12.500   -12.561    -0.061     (0)  
   FeHSO4+         2.106e-14   1.829e-14   -13.677   -13.738    -0.061     (0)  
   FeSO4+          6.258e-16   5.457e-16   -15.204   -15.263    -0.060     (0)  
   Fe(SO4)2-       1.532e-20   1.331e-20   -19.815   -19.876    -0.061     (0)  
   FeHSO4+2        3.362e-22   1.915e-22   -21.473   -21.718    -0.244     (0)  
Si            5.921e-04
   H4SiO4          5.916e-04   5.946e-04    -3.228    -3.226     0.002     53.59
   H3SiO4-         4.627e-07   4.012e-07    -6.335    -6.397    -0.062     27.52
   H2SiO4-2        1.338e-13   7.801e-14   -12.873   -13.108    -0.234     (0)  
   SiF6-2          1.033e-30   5.967e-31   -29.986   -30.224    -0.238     41.64

------------------------------Saturation indices-------------------------------

	Phase               SI   log IAP   log K(283 K,   1 atm)

	Amm(g)           -7.97     -5.85    2.11  Amm
	Anhydrite        -4.47     -8.60   -4.13  CaSO4
	Aragonite         0.08     -8.18   -8.26  CaCO3
	Calcite           0.24     -8.18   -8.41  CaCO3
	Chalcedony        0.50     -3.23   -3.73  SiO2
	Chrysotile       -9.29     24.78   34.07  Mg3Si2O5(OH)4
	CO2(g)           -1.09     -2.36   -1.28  CO2
	Dolomite         -0.33    -17.07  -16.74  CaMg(CO3)2
	Fe(OH)3(a)        2.58      7.47    4.89  Fe(OH)3
	Fluorite         -1.95    -12.74  -10.79  CaF2
	Goethite          7.93      7.47   -0.46  FeOOH
	Gypsum           -4.01     -8.60   -4.59  CaSO4:2H2O
	H2(g)           -21.83    -24.88   -3.06  H2
	H2O(g)           -1.89     -0.00    1.89  H2O
	Halite           -6.35     -4.80    1.56  NaCl
	Hausmannite     -17.25     47.52   64.77  Mn3O4
	Hematite         17.80     14.94   -2.86  Fe2O3
	Hydroxyapatite    2.71      0.63   -2.08  Ca5(PO4)3OH
	Jarosite-K       -5.66    -13.70   -8.05  KFe3(SO4)2(OH)6
	Manganite        -5.87     19.47   25.34  MnOOH
	Melanterite      -7.38     -9.78   -2.40  FeSO4:7H2O
	O2(g)           -44.72    -47.49   -2.77  O2
	Pyrochroite      -6.63      8.57   15.20  Mn(OH)2
	Pyrolusite      -13.43     30.37   43.80  MnO2:H2O
	Quartz            0.98     -3.23   -4.20  SiO2
	Rhodochrosite     0.35    -10.73  -11.08  MnCO3
	Sepiolite        -5.01     11.15   16.16  Mg2Si3O7.5OH:3H2O
	Sepiolite(d)     -7.51     11.15   18.66  Mg2Si3O7.5OH:3H2O
	Siderite          1.45     -9.35  -10.80  FeCO3
	SiO2(a)          -0.39     -3.23   -2.84  SiO2
	Sylvite          -6.85     -6.11    0.74  KCl
	Talc             -4.79     18.33   23.12  Mg3Si4O10(OH)2
	Vivianite         4.23    -31.77  -36.00  Fe3(PO4)2:8H2O


Initial solution 3.	

----------------------------------User print-----------------------------------

  1.0012e+00 

-----------------------------Solution composition------------------------------

	Elements           Molality       Moles

	Alkalinity        1.735e-02   1.735e-02
	Amm               1.394e-03   1.394e-03
	Ca                4.500e-03   4.500e-03
	Cl                1.005e-02   1.005e-02
	F                 9.867e-06   9.867e-06
	Fe                3.355e-04   3.355e-04
	K                 3.844e-04   3.844e-04
	Mg                1.282e-03   1.282e-03
	Mn                1.897e-05   1.897e-05
	N(5)              6.402e-05   6.402e-05
	Na                1.207e-02   1.207e-02
	P                 1.891e-04   1.891e-04
	S(6)              9.600e-06   9.600e-06
	Si                5.746e-04   5.746e-04

----------------------------Description of solution----------------------------

                                       pH  =   7.000    
                                       pe  =   4.000    
       Specific Conductance (uS/cm, 10 oC) = 1754
                          Density (g/cm3)  =   1.00123
                               Volume (L)  =   1.00204
                        Activity of water  =   0.999
                           Ionic strength  =   3.153e-02
                       Mass of water (kg)  =   1.000e+00
                    Total carbon (mol/kg)  =   2.122e-02
                       Total CO2 (mol/kg)  =   2.122e-02
                      Temperature (deg C)  =  10.50
                  Electrical balance (eq)  =  -1.558e-03
 Percent error, 100*(Cat-|An|)/(Cat+|An|)  =  -2.99
                               Iterations  =  11
                                  Total H  = 1.110335e+02
                                  Total O  = 5.556913e+01

----------------------------Distribution of species----------------------------

                                               Log       Log       Log    mole V
   Species          Molality    Activity  Molality  Activity     Gamma   cm3/mol

   H+              1.143e-07   1.000e-07    -6.942    -7.000    -0.058      0.00
   OH-             3.639e-08   3.072e-08    -7.439    -7.513    -0.074     -4.82
   H2O             5.551e+01   9.991e-01     1.744    -0.000     0.000     18.02
Amm           1.394e-03
   AmmH+           1.392e-03   1.165e-03    -2.856    -2.934    -0.077     17.43
   Amm             2.241e-06   2.257e-06    -5.650    -5.646     0.003     24.07
   AmmHSO4-        7.001e-08   5.953e-08    -7.155    -7.225    -0.070     (0)  
C(4)          2.122e-02
   HCO3-           1.646e-02   1.409e-02    -1.784    -1.851    -0.067     23.40
   CO2             4.024e-03   4.053e-03    -2.395    -2.392     0.003     33.44
   CaHCO3+         3.415e-04   2.936e-04    -3.467    -3.532    -0.066      9.05
   FeHCO3+         1.458e-04   1.240e-04    -3.836    -3.907    -0.070     (0)  
   MgHCO3+         1.173e-04   9.940e-05    -3.931    -4.003    -0.072      5.02
   NaHCO3          8.767e-05   8.831e-05    -4.057    -4.054     0.003      2.13
   CaCO3           1.399e-05   1.409e-05    -4.854    -4.851     0.003    -14.65
   FeCO3           9.739e-06   9.810e-06    -5.011    -5.008     0.003     (0)  
   CO3-2           8.647e-06   4.648e-06    -5.063    -5.333    -0.270     -6.85
   MnHCO3+         7.521e-06   6.422e-06    -5.124    -5.192    -0.069     (0)  
   MgCO3           2.215e-06   2.231e-06    -5.655    -5.652     0.003    -17.07
   MnCO3           1.875e-06   1.888e-06    -5.727    -5.724     0.003     (0)  
   NaCO3-          4.825e-07   4.103e-07    -6.317    -6.387    -0.070     -2.20
Ca            4.500e-03
   Ca+2            4.110e-03   2.211e-03    -2.386    -2.655    -0.269    -18.06
   CaHCO3+         3.415e-04   2.936e-04    -3.467    -3.532    -0.066      9.05
   CaHPO4          2.957e-05   2.979e-05    -4.529    -4.526     0.003     (0)  
   CaCO3           1.399e-05   1.409e-05    -4.854    -4.851     0.003    -14.65
   CaH2PO4+        2.823e-06   2.418e-06    -5.549    -5.617    -0.067     (0)  
   CaSO4           1.381e-06   1.391e-06    -5.860    -5.857     0.003      6.82
   CaPO4-          6.175e-07   5.288e-07    -6.209    -6.277    -0.067     (0)  
   CaOH+           4.312e-09   3.667e-09    -8.365    -8.436    -0.070     (0)  
   CaHSO4+         8.966e-13   7.624e-13   -12.047   -12.118    -0.070     (0)  
Cl            1.005e-02
   Cl-             1.005e-02   8.501e-03    -1.998    -2.071    -0.073     17.53
   FeCl+           1.214e-06   1.032e-06    -5.916    -5.986    -0.070     (0)  
   MnCl+           2.074e-07   1.771e-07    -6.683    -6.752    -0.069      5.78
   MnCl2           6.524e-10   6.571e-10    -9.185    -9.182     0.003     (0)  
   MnCl3-          1.802e-12   1.539e-12   -11.744   -11.813    -0.069     (0)  
   FeCl+2          1.086e-14   5.772e-15   -13.964   -14.239    -0.274     (0)  
   FeCl2+          4.161e-16   3.553e-16   -15.381   -15.449    -0.069     (0)  
   FeCl3           2.998e-19   3.020e-19   -18.523   -18.520     0.003     (0)  
F             9.867e-06
   F-              9.513e-06   8.031e-06    -5.022    -5.095    -0.074     -1.41
   MgF+            2.974e-07   2.530e-07    -6.527    -6.597    -0.070    -10.52
   NaF             4.691e-08   4.725e-08    -7.329    -7.326     0.003      6.58
   FeF+            8.309e-09   7.065e-09    -8.080    -8.151    -0.070     (0)  
   HF              9.286e-10   9.354e-10    -9.032    -9.029     0.003     11.67
   MnF+            3.327e-10   2.841e-10    -9.478    -9.546    -0.069     (0)  
   FeF+2           6.913e-13   3.675e-13   -12.160   -12.435    -0.274     (0)  
   FeF2+           1.148e-13   9.802e-14   -12.940   -13.009    -0.069     (0)  
   HF2-            2.947e-14   2.506e-14   -13.531   -13.601    -0.070     21.25
   FeF3            1.176e-15   1.185e-15   -14.930   -14.926     0.003     (0)  
   SiF6-2          1.802e-31   9.581e-32   -30.744   -31.019    -0.274     41.73
Fe(2)         3.323e-04
   Fe+2            1.611e-04   8.798e-05    -3.793    -4.056    -0.263    -22.90
   FeHCO3+         1.458e-04   1.240e-04    -3.836    -3.907    -0.070     (0)  
   FeHPO4          1.136e-05   1.144e-05    -4.945    -4.942     0.003     (0)  
   FeCO3           9.739e-06   9.810e-06    -5.011    -5.008     0.003     (0)  
   FeH2PO4+        2.950e-06   2.526e-06    -5.530    -5.598    -0.067     (0)  
   FeCl+           1.214e-06   1.032e-06    -5.916    -5.986    -0.070     (0)  
   FeOH+           1.042e-07   8.900e-08    -6.982    -7.051    -0.069     (0)  
   FeSO4           4.663e-08   4.697e-08    -7.331    -7.328     0.003     (0)  
   FeF+            8.309e-09   7.065e-09    -8.080    -8.151    -0.070     (0)  
   Fe(OH)2         1.996e-12   2.010e-12   -11.700   -11.697     0.003     (0)  
   FeHSO4+         3.567e-14   3.033e-14   -13.448   -13.518    -0.070     (0)  
   Fe(OH)3-        7.525e-16   6.426e-16   -15.123   -15.192    -0.069     (0)  
Fe(3)         3.256e-06
   Fe(OH)2+        2.078e-06   1.779e-06    -5.682    -5.750    -0.067     (0)  
   Fe(OH)3         1.170e-06   1.178e-06    -5.932    -5.929     0.003     (0)  
   Fe(OH)4-        6.796e-09   5.819e-09    -8.168    -8.235    -0.067     (0)  
   FeOH+2          1.803e-09   9.585e-10    -8.744    -9.018    -0.274     (0)  
   FeH2PO4+2       1.046e-12   5.621e-13   -11.981   -12.250    -0.270     (0)  
   FeF+2           6.913e-13   3.675e-13   -12.160   -12.435    -0.274     (0)  
   FeHPO4+         2.283e-13   1.949e-13   -12.642   -12.710    -0.069     (0)  
   Fe+3            1.216e-13   3.645e-14   -12.915   -13.438    -0.523     (0)  
   FeF2+           1.148e-13   9.802e-14   -12.940   -13.009    -0.069     (0)  
   FeCl+2          1.086e-14   5.772e-15   -13.964   -14.239    -0.274     (0)  
   FeSO4+          1.325e-15   1.131e-15   -14.878   -14.946    -0.069     (0)  
   FeF3            1.176e-15   1.185e-15   -14.930   -14.926     0.003     (0)  
   Fe2(OH)2+4      6.214e-16   4.642e-17   -15.207   -16.333    -1.127     (0)  
   FeCl2+          4.161e-16   3.553e-16   -15.381   -15.449    -0.069     (0)  
   Fe3(OH)4+5      4.056e-18   7.042e-20   -17.392   -19.152    -1.760     (0)  
   FeCl3           2.998e-19   3.020e-19   -18.523   -18.520     0.003     (0)  
   Fe(SO4)2-       1.088e-19   9.252e-20   -18.963   -19.034    -0.070     (0)  
   FeHSO4+2        6.037e-22   3.156e-22   -21.219   -21.501    -0.282     (0)  
H(0)          1.636e-25
   H2              8.180e-26   8.240e-26   -25.087   -25.084     0.003     28.62
K             3.844e-04
   K+              3.843e-04   3.248e-04    -3.415    -3.488    -0.073      8.53
   KHPO4-          2.416e-08   2.069e-08    -7.617    -7.684    -0.067     (0)  
   KSO4-           8.105e-09   6.940e-09    -8.091    -8.159    -0.067     (0)  
Mg            1.282e-03
   Mg+2            1.149e-03   6.284e-04    -2.940    -3.202    -0.262    -20.90
   MgHCO3+         1.173e-04   9.940e-05    -3.931    -4.003    -0.072      5.02
   MgHPO4          1.136e-05   1.144e-05    -4.945    -4.941     0.003     (0)  
   MgCO3           2.215e-06   2.231e-06    -5.655    -5.652     0.003    -17.07
   MgH2PO4+        1.022e-06   8.749e-07    -5.991    -6.058    -0.067     (0)  
   MgSO4           3.918e-07   3.946e-07    -6.407    -6.404     0.003      5.15
   MgF+            2.974e-07   2.530e-07    -6.527    -6.597    -0.070    -10.52
   MgPO4-          2.367e-07   2.027e-07    -6.626    -6.693    -0.067     (0)  
   MgOH+           6.674e-09   5.756e-09    -8.176    -8.240    -0.064     (0)  
Mn(2)         1.897e-05
   Mn+2            9.362e-06   5.114e-06    -5.029    -5.291    -0.263    -16.53
   MnHCO3+         7.521e-06   6.422e-06    -5.124    -5.192    -0.069     (0)  
   MnCO3           1.875e-06   1.888e-06    -5.727    -5.724     0.003     (0)  
   MnCl+           2.074e-07   1.771e-07    -6.683    -6.752    -0.069      5.78
   MnSO4           2.678e-09   2.697e-09    -8.572    -8.569     0.003      4.38
   MnCl2           6.524e-10   6.571e-10    -9.185    -9.182     0.003     (0)  
   MnOH+           4.440e-10   3.791e-10    -9.353    -9.421    -0.069     (0)  
   MnF+            3.327e-10   2.841e-10    -9.478    -9.546    -0.069     (0)  
   MnCl3-          1.802e-12   1.539e-12   -11.744   -11.813    -0.069     (0)  
   Mn(NO3)2        6.058e-14   6.102e-14   -13.218   -13.215     0.003     (0)  
   Mn(OH)3-        9.467e-20   8.084e-20   -19.024   -19.092    -0.069     (0)  
Mn(3)         5.694e-28
   Mn+3            5.694e-28   1.706e-28   -27.245   -27.768    -0.523     (0)  
N(5)          6.402e-05
   NO3-            6.402e-05   5.382e-05    -4.194    -4.269    -0.075     27.92
   Mn(NO3)2        6.058e-14   6.102e-14   -13.218   -13.215     0.003     (0)  
Na            1.207e-02
   Na+             1.198e-02   1.022e-02    -1.921    -1.990    -0.069     -2.17
   NaHCO3          8.767e-05   8.831e-05    -4.057    -4.054     0.003      2.13
   NaHPO4-         7.604e-07   6.511e-07    -6.119    -6.186    -0.067     (0)  
   NaCO3-          4.825e-07   4.103e-07    -6.317    -6.387    -0.070     -2.20
   NaSO4-          2.155e-07   1.845e-07    -6.667    -6.734    -0.067     18.50
   NaF             4.691e-08   4.725e-08    -7.329    -7.326     0.003      6.58
   NaOH            3.118e-20   3.141e-20   -19.506   -19.503     0.003     (0)  
O(0)          0.000e+00
   O2              0.000e+00   0.000e+00   -47.134   -47.131     0.003     29.01
P             1.891e-04
   H2PO4-          6.691e-05   5.730e-05    -4.174    -4.242    -0.067     30.19
   HPO4-2          6.144e-05   3.266e-05    -4.212    -4.486    -0.274      5.64
   CaHPO4          2.957e-05   2.979e-05    -4.529    -4.526     0.003     (0)  
   MgHPO4          1.136e-05   1.144e-05    -4.945    -4.941     0.003     (0)  
   FeHPO4          1.136e-05   1.144e-05    -4.945    -4.942     0.003     (0)  
   FeH2PO4+        2.950e-06   2.526e-06    -5.530    -5.598    -0.067     (0)  
   CaH2PO4+        2.823e-06   2.418e-06    -5.549    -5.617    -0.067     (0)  
   MgH2PO4+        1.022e-06   8.749e-07    -5.991    -6.058    -0.067     (0)  
   NaHPO4-         7.604e-07   6.511e-07    -6.119    -6.186    -0.067     (0)  
   CaPO4-          6.175e-07   5.288e-07    -6.209    -6.277    -0.067     (0)  
   MgPO4-          2.367e-07   2.027e-07    -6.626    -6.693    -0.067     (0)  
   KHPO4-          2.416e-08   2.069e-08    -7.617    -7.684    -0.067     (0)  
   PO4-3           4.810e-10   1.086e-10    -9.318    -9.964    -0.646    -28.41
   FeH2PO4+2       1.046e-12   5.621e-13   -11.981   -12.250    -0.270     (0)  
   FeHPO4+         2.283e-13   1.949e-13   -12.642   -12.710    -0.069     (0)  
S(6)          9.600e-06
   SO4-2           7.484e-06   3.967e-06    -5.126    -5.402    -0.276     11.98
   CaSO4           1.381e-06   1.391e-06    -5.860    -5.857     0.003      6.82
   MgSO4           3.918e-07   3.946e-07    -6.407    -6.404     0.003      5.15
   NaSO4-          2.155e-07   1.845e-07    -6.667    -6.734    -0.067     18.50
   AmmHSO4-        7.001e-08   5.953e-08    -7.155    -7.225    -0.070     (0)  
   FeSO4           4.663e-08   4.697e-08    -7.331    -7.328     0.003     (0)  
   KSO4-           8.105e-09   6.940e-09    -8.091    -8.159    -0.067     (0)  
   MnSO4           2.678e-09   2.697e-09    -8.572    -8.569     0.003      4.38
   HSO4-           3.372e-11   2.867e-11   -10.472   -10.542    -0.070     39.07
   CaHSO4+         8.966e-13   7.624e-13   -12.047   -12.118    -0.070     (0)  
   FeHSO4+         3.567e-14   3.033e-14   -13.448   -13.518    -0.070     (0)  
   FeSO4+          1.325e-15   1.131e-15   -14.878   -14.946    -0.069     (0)  
   Fe(SO4)2-       1.088e-19   9.252e-20   -18.963   -19.034    -0.070     (0)  
   FeHSO4+2        6.037e-22   3.156e-22   -21.219   -21.501    -0.282     (0)  
Si            5.746e-04
   H4SiO4          5.740e-04   5.782e-04    -3.241    -3.238     0.003     53.60
   H3SiO4-         5.770e-07   4.891e-07    -6.239    -6.311    -0.072     27.54
   H2SiO4-2        2.210e-13   1.188e-13   -12.656   -12.925    -0.270     (0)  
   SiF6-2          1.802e-31   9.581e-32   -30.744   -31.019    -0.274     41.73

------------------------------Saturation indices-------------------------------

	Phase               SI   log IAP   log K(283 K,   1 atm)

	Amm(g)           -7.76     -5.65    2.12  Amm
	Anhydrite        -3.93     -8.06   -4.13  CaSO4
	Aragonite         0.27     -7.99   -8.26  CaCO3
	Calcite           0.42     -7.99   -8.41  CaCO3
	Chalcedony        0.49     -3.24   -3.73  SiO2
	Chrysotile       -8.17     25.92   34.09  Mg3Si2O5(OH)4
	CO2(g)           -1.12     -2.39   -1.27  CO2
	Dolomite          0.21    -16.52  -16.74  CaMg(CO3)2
	Fe(OH)3(a)        2.67      7.56    4.89  Fe(OH)3
	Fluorite         -2.06    -12.85  -10.79  CaF2
	Goethite          8.02      7.56   -0.46  FeOOH
	Gypsum           -3.47     -8.06   -4.59  CaSO4:2H2O
	H2(g)           -22.03    -25.08   -3.06  H2
	H2O(g)           -1.90     -0.00    1.90  H2O
	Halite           -5.62     -4.06    1.56  NaCl
	Hausmannite     -16.68     48.12   64.80  Mn3O4
	Hematite         17.97     15.12   -2.85  Fe2O3
	Hydroxyapatite    3.33      1.27   -2.07  Ca5(PO4)3OH
	Jarosite-K       -4.57    -12.61   -8.04  KFe3(SO4)2(OH)6
	Manganite        -5.63     19.71   25.34  MnOOH
	Melanterite      -7.06     -9.46   -2.40  FeSO4:7H2O
	O2(g)           -44.36    -47.13   -2.77  O2
	Pyrochroite      -6.49      8.71   15.20  Mn(OH)2
	Pyrolusite      -13.11     30.71   43.82  MnO2:H2O
	Quartz            0.97     -3.24   -4.20  SiO2
	Rhodochrosite     0.45    -10.62  -11.08  MnCO3
	Sepiolite        -4.28     11.88   16.16  Mg2Si3O7.5OH:3H2O
	Sepiolite(d)     -6.78     11.88   18.66  Mg2Si3O7.5OH:3H2O
	Siderite          1.41     -9.39  -10.80  FeCO3
	SiO2(a)          -0.40     -3.24   -2.84  SiO2
	Sylvite          -6.30     -5.56    0.74  KCl
	Talc             -3.69     19.44   23.14  Mg3Si4O10(OH)2
	Vivianite         3.90    -32.10  -36.00  Fe3(PO4)2:8H2O


Initial solution 4.	

----------------------------------User print-----------------------------------

  1.0018e+00 

-----------------------------Solution composition------------------------------

	Elements           Molality       Moles

	Alkalinity        2.109e-02   2.109e-02
	Amm               1.111e-03   1.111e-03
	Ca                5.404e-03   5.404e-03
	Cl                1.685e-02   1.685e-02
	F                 8.463e-06   8.463e-06
	Fe                2.460e-04   2.460e-04
	K                 6.334e-04   6.334e-04
	Mg                2.009e-03   2.009e-03
	Mn                2.245e-05   2.245e-05
	N(5)              2.404e-04   2.404e-04
	Na                1.976e-02   1.976e-02
	P                 1.704e-04   1.704e-04
	S(6)              3.343e-05   3.343e-05
	Si                5.321e-04   5.321e-04

----------------------------Description of solution----------------------------

                                       pH  =   7.000    
                                       pe  =   4.000    
       Specific Conductance (uS/cm, 10 oC) = 2457
                          Density (g/cm3)  =   1.00180
                               Volume (L)  =   1.00243
                        Activity of water  =   0.999
                           Ionic strength  =   4.340e-02
                       Mass of water (kg)  =   1.000e+00
                    Total carbon (mol/kg)  =   2.573e-02
                       Total CO2 (mol/kg)  =   2.573e-02
                      Temperature (deg C)  =  10.30
                  Electrical balance (eq)  =  -1.569e-03
 Percent error, 100*(Cat-|An|)/(Cat+|An|)  =  -2.15
                               Iterations  =  10
                                  Total H  = 1.110368e+02
                                  Total O  = 5.558228e+01

----------------------------Distribution of species----------------------------

                                               Log       Log       Log    mole V
   Species          Molality    Activity  Molality  Activity     Gamma   cm3/mol

   H+              1.160e-07   1.000e-07    -6.936    -7.000    -0.064      0.00
   OH-             3.660e-08   3.017e-08    -7.437    -7.520    -0.084     -4.80
   H2O             5.551e+01   9.988e-01     1.744    -0.001     0.000     18.02
Amm           1.111e-03
   AmmH+           1.109e-03   9.041e-04    -2.955    -3.044    -0.089     17.44
   Amm             1.708e-06   1.725e-06    -5.768    -5.763     0.004     24.07
   AmmHSO4-        1.740e-07   1.449e-07    -6.759    -6.839    -0.079     (0)  
C(4)          2.573e-02
   HCO3-           1.994e-02   1.674e-02    -1.700    -1.776    -0.076     23.43
   CO2             4.792e-03   4.840e-03    -2.320    -2.315     0.004     33.52
   CaHCO3+         4.535e-04   3.827e-04    -3.343    -3.417    -0.074      9.05
   MgHCO3+         2.056e-04   1.704e-04    -3.687    -3.769    -0.082      5.03
   NaHCO3          1.667e-04   1.683e-04    -3.778    -3.774     0.004      2.13
   FeHCO3+         1.146e-04   9.549e-05    -3.941    -4.020    -0.079     (0)  
   CaCO3           1.816e-05   1.834e-05    -4.741    -4.737     0.004    -14.65
   CO3-2           1.105e-05   5.492e-06    -4.957    -5.260    -0.304     -6.77
   MnHCO3+         9.406e-06   7.869e-06    -5.027    -5.104    -0.077     (0)  
   FeCO3           7.438e-06   7.513e-06    -5.129    -5.124     0.004     (0)  
   MgCO3           3.753e-06   3.791e-06    -5.426    -5.421     0.004    -17.07
   MnCO3           2.278e-06   2.300e-06    -5.643    -5.638     0.004     (0)  
   NaCO3-          9.220e-07   7.680e-07    -6.035    -6.115    -0.079     -2.16
Ca            5.404e-03
   Ca+2            4.897e-03   2.439e-03    -2.310    -2.613    -0.303    -18.01
   CaHCO3+         4.535e-04   3.827e-04    -3.343    -3.417    -0.074      9.05
   CaHPO4          2.761e-05   2.789e-05    -4.559    -4.555     0.004     (0)  
   CaCO3           1.816e-05   1.834e-05    -4.741    -4.737     0.004    -14.65
   CaSO4           4.758e-06   4.806e-06    -5.323    -5.318     0.004      6.80
   CaH2PO4+        2.699e-06   2.266e-06    -5.569    -5.645    -0.076     (0)  
   CaPO4-          5.871e-07   4.929e-07    -6.231    -6.307    -0.076     (0)  
   CaOH+           4.854e-09   4.043e-09    -8.314    -8.393    -0.079     (0)  
   CaHSO4+         3.155e-12   2.627e-12   -11.501   -11.580    -0.079     (0)  
Cl            1.685e-02
   Cl-             1.685e-02   1.394e-02    -1.773    -1.856    -0.082     17.54
   FeCl+           1.317e-06   1.097e-06    -5.880    -5.960    -0.079     (0)  
   MnCl+           3.578e-07   2.994e-07    -6.446    -6.524    -0.077      5.79
   MnCl2           1.803e-09   1.821e-09    -8.744    -8.740     0.004     (0)  
   MnCl3-          8.357e-12   6.992e-12   -11.078   -11.155    -0.077     (0)  
   FeCl+2          1.228e-14   6.017e-15   -13.911   -14.221    -0.310     (0)  
   FeCl2+          7.310e-16   6.116e-16   -15.136   -15.214    -0.077     (0)  
   FeCl3           8.439e-19   8.524e-19   -18.074   -18.069     0.004     (0)  
F             8.463e-06
   F-              8.036e-06   6.625e-06    -5.095    -5.179    -0.084     -1.39
   MgF+            3.601e-07   2.999e-07    -6.444    -6.523    -0.079    -10.51
   NaF             6.182e-08   6.244e-08    -7.209    -7.205     0.004      6.57
   FeF+            4.536e-09   3.778e-09    -8.343    -8.423    -0.079     (0)  
   HF              7.614e-10   7.690e-10    -9.118    -9.114     0.004     11.66
   MnF+            2.889e-10   2.417e-10    -9.539    -9.617    -0.077     (0)  
   FeF+2           3.949e-13   1.935e-13   -12.404   -12.713    -0.310     (0)  
   FeF2+           5.075e-14   4.246e-14   -13.295   -13.372    -0.077     (0)  
   HF2-            2.036e-14   1.696e-14   -13.691   -13.771    -0.079     21.26
   FeF3            4.188e-16   4.231e-16   -15.378   -15.374     0.004     (0)  
   SiF6-2          5.849e-32   2.866e-32   -31.233   -31.543    -0.310     41.80
Fe(2)         2.439e-04
   FeHCO3+         1.146e-04   9.549e-05    -3.941    -4.020    -0.079     (0)  
   Fe+2            1.124e-04   5.703e-05    -3.949    -4.244    -0.295    -22.86
   FeCO3           7.438e-06   7.513e-06    -5.129    -5.124     0.004     (0)  
   FeHPO4          6.256e-06   6.319e-06    -5.204    -5.199     0.004     (0)  
   FeH2PO4+        1.664e-06   1.397e-06    -5.779    -5.855    -0.076     (0)  
   FeCl+           1.317e-06   1.097e-06    -5.880    -5.960    -0.079     (0)  
   FeSO4           9.415e-08   9.510e-08    -7.026    -7.022     0.004     (0)  
   FeOH+           6.780e-08   5.672e-08    -7.169    -7.246    -0.077     (0)  
   FeF+            4.536e-09   3.778e-09    -8.343    -8.423    -0.079     (0)  
   Fe(OH)2         1.244e-12   1.257e-12   -11.905   -11.901     0.004     (0)  
   FeHSO4+         7.375e-14   6.143e-14   -13.132   -13.212    -0.079     (0)  
   Fe(OH)3-        4.788e-16   4.006e-16   -15.320   -15.397    -0.077     (0)  
Fe(3)         2.056e-06
   Fe(OH)2+        1.327e-06   1.114e-06    -5.877    -5.953    -0.076     (0)  
   Fe(OH)3         7.235e-07   7.308e-07    -6.141    -6.136     0.004     (0)  
   Fe(OH)4-        4.259e-09   3.576e-09    -8.371    -8.447    -0.076     (0)  
   FeOH+2          1.236e-09   6.057e-10    -8.908    -9.218    -0.310     (0)  
   FeH2PO4+2       6.180e-13   3.071e-13   -12.209   -12.513    -0.304     (0)  
   FeF+2           3.949e-13   1.935e-13   -12.404   -12.713    -0.310     (0)  
   FeHPO4+         1.262e-13   1.056e-13   -12.899   -12.976    -0.077     (0)  
   Fe+3            8.863e-14   2.334e-14   -13.052   -13.632    -0.579     (0)  
   FeF2+           5.075e-14   4.246e-14   -13.295   -13.372    -0.077     (0)  
   FeCl+2          1.228e-14   6.017e-15   -13.911   -14.221    -0.310     (0)  
   FeSO4+          2.703e-15   2.261e-15   -14.568   -14.646    -0.077     (0)  
   FeCl2+          7.310e-16   6.116e-16   -15.136   -15.214    -0.077     (0)  
   FeF3            4.188e-16   4.231e-16   -15.378   -15.374     0.004     (0)  
   Fe2(OH)2+4      3.485e-16   1.871e-17   -15.458   -16.728    -1.270     (0)  
   Fe3(OH)4+5      1.751e-18   1.814e-20   -17.757   -19.741    -1.985     (0)  
   FeCl3           8.439e-19   8.524e-19   -18.074   -18.069     0.004     (0)  
   Fe(SO4)2-       6.957e-19   5.795e-19   -18.158   -18.237    -0.079     (0)  
   FeHSO4+2        1.312e-21   6.315e-22   -20.882   -21.200    -0.318     (0)  
H(0)          1.635e-25
   H2              8.176e-26   8.258e-26   -25.087   -25.083     0.004     28.62
K             6.334e-04
   K+              6.333e-04   5.229e-04    -3.198    -3.282    -0.083      8.54
   KSO4-           4.157e-08   3.491e-08    -7.381    -7.457    -0.076     (0)  
   KHPO4-          3.380e-08   2.838e-08    -7.471    -7.547    -0.076     (0)  
Mg            2.009e-03
   Mg+2            1.782e-03   9.065e-04    -2.749    -3.043    -0.293    -20.83
   MgHCO3+         2.056e-04   1.704e-04    -3.687    -3.769    -0.082      5.03
   MgHPO4          1.387e-05   1.401e-05    -4.858    -4.854     0.004     (0)  
   MgCO3           3.753e-06   3.791e-06    -5.426    -5.421     0.004    -17.07
   MgSO4           1.758e-06   1.775e-06    -5.755    -5.751     0.004      5.14
   MgH2PO4+        1.277e-06   1.072e-06    -5.894    -5.970    -0.076     (0)  
   MgF+            3.601e-07   2.999e-07    -6.444    -6.523    -0.079    -10.51
   MgPO4-          2.943e-07   2.471e-07    -6.531    -6.607    -0.076     (0)  
   MgOH+           9.603e-09   8.137e-09    -8.018    -8.090    -0.072     (0)  
Mn(2)         2.245e-05
   Mn+2            1.040e-05   5.273e-06    -4.983    -5.278    -0.295    -16.47
   MnHCO3+         9.406e-06   7.869e-06    -5.027    -5.104    -0.077     (0)  
   MnCO3           2.278e-06   2.300e-06    -5.643    -5.638     0.004     (0)  
   MnCl+           3.578e-07   2.994e-07    -6.446    -6.524    -0.077      5.79
   MnSO4           8.600e-09   8.687e-09    -8.065    -8.061     0.004      4.36
   MnCl2           1.803e-09   1.821e-09    -8.744    -8.740     0.004     (0)  
   MnOH+           4.588e-10   3.838e-10    -9.338    -9.416    -0.077     (0)  
   MnF+            2.889e-10   2.417e-10    -9.539    -9.617    -0.077     (0)  
   MnCl3-          8.357e-12   6.992e-12   -11.078   -11.155    -0.077     (0)  
   Mn(NO3)2        8.361e-13   8.445e-13   -12.078   -12.073     0.004     (0)  
   Mn(OH)3-        9.953e-20   8.327e-20   -19.002   -19.080    -0.077     (0)  
Mn(3)         6.469e-28
   Mn+3            6.469e-28   1.703e-28   -27.189   -27.769    -0.579     (0)  
N(5)          2.404e-04
   NO3-            2.404e-04   1.971e-04    -3.619    -3.705    -0.086     27.92
   Mn(NO3)2        8.361e-13   8.445e-13   -12.078   -12.073     0.004     (0)  
Na            1.976e-02
   Na+             1.959e-02   1.638e-02    -1.708    -1.786    -0.078     -2.16
   NaHCO3          1.667e-04   1.683e-04    -3.778    -3.774     0.004      2.13
   NaSO4-          1.103e-06   9.260e-07    -5.957    -6.033    -0.076     18.61
   NaHPO4-         1.059e-06   8.890e-07    -5.975    -6.051    -0.076     (0)  
   NaCO3-          9.220e-07   7.680e-07    -6.035    -6.115    -0.079     -2.16
   NaF             6.182e-08   6.244e-08    -7.209    -7.205     0.004      6.57
   NaOH            4.893e-20   4.942e-20   -19.310   -19.306     0.004     (0)  
O(0)          0.000e+00
   O2              0.000e+00   0.000e+00   -47.209   -47.205     0.004     28.98
P             1.704e-04
   H2PO4-          5.823e-05   4.889e-05    -4.235    -4.311    -0.076     30.19
   HPO4-2          5.681e-05   2.783e-05    -4.246    -4.555    -0.310      5.73
   CaHPO4          2.761e-05   2.789e-05    -4.559    -4.555     0.004     (0)  
   MgHPO4          1.387e-05   1.401e-05    -4.858    -4.854     0.004     (0)  
   FeHPO4          6.256e-06   6.319e-06    -5.204    -5.199     0.004     (0)  
   CaH2PO4+        2.699e-06   2.266e-06    -5.569    -5.645    -0.076     (0)  
   FeH2PO4+        1.664e-06   1.397e-06    -5.779    -5.855    -0.076     (0)  
   MgH2PO4+        1.277e-06   1.072e-06    -5.894    -5.970    -0.076     (0)  
   NaHPO4-         1.059e-06   8.890e-07    -5.975    -6.051    -0.076     (0)  
   CaPO4-          5.871e-07   4.929e-07    -6.231    -6.307    -0.076     (0)  
   MgPO4-          2.943e-07   2.471e-07    -6.531    -6.607    -0.076     (0)  
   KHPO4-          3.380e-08   2.838e-08    -7.471    -7.547    -0.076     (0)  
   PO4-3           4.997e-10   9.213e-11    -9.301   -10.036    -0.734    -28.17
   FeH2PO4+2       6.180e-13   3.071e-13   -12.209   -12.513    -0.304     (0)  
   FeHPO4+         1.262e-13   1.056e-13   -12.899   -12.976    -0.077     (0)  
S(6)          3.343e-05
   SO4-2           2.549e-05   1.244e-05    -4.594    -4.905    -0.312     12.03
   CaSO4           4.758e-06   4.806e-06    -5.323    -5.318     0.004      6.80
   MgSO4           1.758e-06   1.775e-06    -5.755    -5.751     0.004      5.14
   NaSO4-          1.103e-06   9.260e-07    -5.957    -6.033    -0.076     18.61
   AmmHSO4-        1.740e-07   1.449e-07    -6.759    -6.839    -0.079     (0)  
   FeSO4           9.415e-08   9.510e-08    -7.026    -7.022     0.004     (0)  
   KSO4-           4.157e-08   3.491e-08    -7.381    -7.457    -0.076     (0)  
   MnSO4           8.600e-09   8.687e-09    -8.065    -8.061     0.004      4.36
   HSO4-           1.076e-10   8.960e-11    -9.968   -10.048    -0.079     39.08
   CaHSO4+         3.155e-12   2.627e-12   -11.501   -11.580    -0.079     (0)  
   FeHSO4+         7.375e-14   6.143e-14   -13.132   -13.212    -0.079     (0)  
   FeSO4+          2.703e-15   2.261e-15   -14.568   -14.646    -0.077     (0)  
   Fe(SO4)2-       6.957e-19   5.795e-19   -18.158   -18.237    -0.079     (0)  
   FeHSO4+2        1.312e-21   6.315e-22   -20.882   -21.200    -0.318     (0)  
Si            5.321e-04
   H4SiO4          5.316e-04   5.369e-04    -3.274    -3.270     0.004     53.63
   H3SiO4-         5.434e-07   4.504e-07    -6.265    -6.346    -0.082     27.55
   H2SiO4-2        2.167e-13   1.077e-13   -12.664   -12.968    -0.304     (0)  
   SiF6-2          5.849e-32   2.866e-32   -31.233   -31.543    -0.310     41.80

------------------------------Saturation indices-------------------------------

	Phase               SI   log IAP   log K(283 K,   1 atm)

	Amm(g)           -7.88     -5.76    2.12  Amm
	Anhydrite        -3.39     -7.52   -4.12  CaSO4
	Aragonite         0.38     -7.87   -8.26  CaCO3
	Calcite           0.54     -7.87   -8.41  CaCO3
	Chalcedony        0.46     -3.27   -3.73  SiO2
	Chrysotile       -7.78     26.33   34.11  Mg3Si2O5(OH)4
	CO2(g)           -1.04     -2.32   -1.27  CO2
	Dolomite          0.56    -16.18  -16.73  CaMg(CO3)2
	Fe(OH)3(a)        2.48      7.37    4.89  Fe(OH)3
	Fluorite         -2.18    -12.97  -10.79  CaF2
	Goethite          7.82      7.37   -0.45  FeOOH
	Gypsum           -2.93     -7.52   -4.59  CaSO4:2H2O
	H2(g)           -22.03    -25.08   -3.06  H2
	H2O(g)           -1.90     -0.00    1.90  H2O
	Halite           -5.20     -3.64    1.56  NaCl
	Hausmannite     -16.69     48.16   64.86  Mn3O4
	Hematite         17.57     14.73   -2.84  Fe2O3
	Hydroxyapatite    3.32      1.27   -2.05  Ca5(PO4)3OH
	Jarosite-K       -3.97    -11.99   -8.02  KFe3(SO4)2(OH)6
	Manganite        -5.62     19.72   25.34  MnOOH
	Melanterite      -6.75     -9.15   -2.41  FeSO4:7H2O
	O2(g)           -44.44    -47.20   -2.77  O2
	Pyrochroite      -6.48      8.72   15.20  Mn(OH)2
	Pyrolusite      -13.13     30.72   43.86  MnO2:H2O
	Quartz            0.94     -3.27   -4.21  SiO2
	Rhodochrosite     0.54    -10.54  -11.08  MnCO3
	Sepiolite        -4.06     12.10   16.17  Mg2Si3O7.5OH:3H2O
	Sepiolite(d)     -6.56     12.10   18.66  Mg2Si3O7.5OH:3H2O
	Siderite          1.29     -9.50  -10.80  FeCO3
	SiO2(a)          -0.43     -3.27   -2.84  SiO2
	Sylvite          -5.88     -5.14    0.74  KCl
	Talc             -3.37     19.79   23.16  Mg3Si4O10(OH)2
	Vivianite         3.19    -32.81  -36.00  Fe3(PO4)2:8H2O


Initial solution 5.	

----------------------------------User print-----------------------------------

  1.0023e+00 

-----------------------------Solution composition------------------------------

	Elements           Molality       Moles

	Alkalinity        2.121e-02   2.121e-02
	Amm               9.094e-04   9.094e-04
	Ca                7.009e-03   7.009e-03
	Cl                2.764e-02   2.764e-02
	F                 7.786e-06   7.786e-06
	Fe                2.587e-04   2.587e-04
	K                 8.801e-04   8.801e-04
	Mg                2.806e-03   2.806e-03
	Mn                2.995e-05   2.995e-05
	Na                2.592e-02   2.592e-02
	P                 1.596e-04   1.596e-04
	S(6)              2.455e-05   2.455e-05
	Si                5.217e-04   5.217e-04

----------------------------Description of solution----------------------------

                                       pH  =   7.000    
                                       pe  =   4.000    
       Specific Conductance (uS/cm, 10 oC) = 3249
                          Density (g/cm3)  =   1.00226
                               Volume (L)  =   1.00257
                        Activity of water  =   0.998
                           Ionic strength  =   5.626e-02
                       Mass of water (kg)  =   1.000e+00
                    Total carbon (mol/kg)  =   2.571e-02
                       Total CO2 (mol/kg)  =   2.571e-02
                      Temperature (deg C)  =  10.50
                  Electrical balance (eq)  =  -1.155e-03
 Percent error, 100*(Cat-|An|)/(Cat+|An|)  =  -1.22
                               Iterations  =  10
                                  Total H  = 1.110367e+02
                                  Total O  = 5.558152e+01

----------------------------Distribution of species----------------------------

                                               Log       Log       Log    mole V
   Species          Molality    Activity  Molality  Activity     Gamma   cm3/mol

   H+              1.174e-07   1.000e-07    -6.930    -7.000    -0.070      0.00
   OH-             3.803e-08   3.070e-08    -7.420    -7.513    -0.093     -4.74
   H2O             5.551e+01   9.985e-01     1.744    -0.001     0.000     18.02
Amm           9.094e-04
   AmmH+           9.079e-04   7.228e-04    -3.042    -3.141    -0.099     17.47
   Amm             1.383e-06   1.401e-06    -5.859    -5.854     0.006     24.07
   AmmHSO4-        9.314e-08   7.621e-08    -7.031    -7.118    -0.087     (0)  
C(4)          2.571e-02
   HCO3-           1.984e-02   1.638e-02    -1.702    -1.786    -0.083     23.52
   CO2             4.654e-03   4.715e-03    -2.332    -2.327     0.006     33.44
   CaHCO3+         5.540e-04   4.601e-04    -3.256    -3.337    -0.081      9.08
   MgHCO3+         2.717e-04   2.207e-04    -3.566    -3.656    -0.090      5.05
   NaHCO3          2.094e-04   2.121e-04    -3.679    -3.673     0.006      2.13
   FeHCO3+         1.169e-04   9.568e-05    -3.932    -4.019    -0.087     (0)  
   CaCO3           2.180e-05   2.209e-05    -4.661    -4.656     0.006    -14.65
   MnHCO3+         1.205e-05   9.900e-06    -4.919    -5.004    -0.085     (0)  
   CO3-2           1.164e-05   5.403e-06    -4.934    -5.267    -0.333     -6.62
   FeCO3           7.474e-06   7.572e-06    -5.126    -5.121     0.006     (0)  
   MgCO3           4.890e-06   4.954e-06    -5.311    -5.305     0.006    -17.07
   MnCO3           2.873e-06   2.911e-06    -5.542    -5.536     0.006     (0)  
   NaCO3-          1.204e-06   9.855e-07    -5.919    -6.006    -0.087     -2.05
Ca            7.009e-03
   Ca+2            6.397e-03   2.982e-03    -2.194    -2.526    -0.332    -17.95
   CaHCO3+         5.540e-04   4.601e-04    -3.256    -3.337    -0.081      9.08
   CaHPO4          2.866e-05   2.903e-05    -4.543    -4.537     0.006     (0)  
   CaCO3           2.180e-05   2.209e-05    -4.661    -4.656     0.006    -14.65
   CaSO4           3.821e-06   3.871e-06    -5.418    -5.412     0.006      6.82
   CaH2PO4+        2.855e-06   2.356e-06    -5.544    -5.628    -0.083     (0)  
   CaPO4-          6.244e-07   5.154e-07    -6.205    -6.288    -0.083     (0)  
   CaOH+           6.038e-09   4.941e-09    -8.219    -8.306    -0.087     (0)  
   CaHSO4+         2.592e-12   2.121e-12   -11.586   -11.673    -0.087     (0)  
Cl            2.764e-02
   Cl-             2.764e-02   2.240e-02    -1.558    -1.650    -0.091     17.58
   FeCl+           2.208e-06   1.806e-06    -5.656    -5.743    -0.087     (0)  
   MnCl+           7.531e-07   6.189e-07    -6.123    -6.208    -0.085      5.83
   MnCl2           5.974e-09   6.052e-09    -8.224    -8.218     0.006     (0)  
   MnCl3-          4.543e-11   3.734e-11   -10.343   -10.428    -0.085     (0)  
   FeCl+2          2.214e-14   1.010e-14   -13.655   -13.996    -0.341     (0)  
   FeCl2+          1.993e-15   1.638e-15   -14.700   -14.786    -0.085     (0)  
   FeCl3           3.622e-18   3.669e-18   -17.441   -17.435     0.006     (0)  
F             7.786e-06
   F-              7.277e-06   5.875e-06    -5.138    -5.231    -0.093     -1.36
   MgF+            4.326e-07   3.536e-07    -6.364    -6.452    -0.088    -10.49
   NaF             7.051e-08   7.143e-08    -7.152    -7.146     0.006      6.58
   FeF+            4.194e-09   3.432e-09    -8.377    -8.464    -0.087     (0)  
   HF              6.754e-10   6.842e-10    -9.170    -9.165     0.006     11.67
   MnF+            3.354e-10   2.757e-10    -9.474    -9.560    -0.085     (0)  
   FeF+2           3.913e-13   1.785e-13   -12.407   -12.748    -0.341     (0)  
   FeF2+           4.238e-14   3.483e-14   -13.373   -13.458    -0.085     (0)  
   HF2-            1.639e-14   1.341e-14   -13.785   -13.873    -0.087     21.30
   FeF3            3.040e-16   3.079e-16   -15.517   -15.512     0.006     (0)  
   SiF6-2          2.946e-32   1.344e-32   -31.531   -31.872    -0.341     41.92
Fe(2)         2.565e-04
   Fe+2            1.229e-04   5.842e-05    -3.911    -4.233    -0.323    -22.78
   FeHCO3+         1.169e-04   9.568e-05    -3.932    -4.019    -0.087     (0)  
   FeCO3           7.474e-06   7.572e-06    -5.126    -5.121     0.006     (0)  
   FeHPO4          5.420e-06   5.491e-06    -5.266    -5.260     0.006     (0)  
   FeCl+           2.208e-06   1.806e-06    -5.656    -5.743    -0.087     (0)  
   FeH2PO4+        1.469e-06   1.213e-06    -5.833    -5.916    -0.083     (0)  
   FeOH+           7.186e-08   5.906e-08    -7.143    -7.229    -0.085     (0)  
   FeSO4           6.352e-08   6.435e-08    -7.197    -7.191     0.006     (0)  
   FeF+            4.194e-09   3.432e-09    -8.377    -8.464    -0.087     (0)  
   Fe(OH)2         1.316e-12   1.333e-12   -11.881   -11.875     0.006     (0)  
   FeHSO4+         5.078e-14   4.155e-14   -13.294   -13.381    -0.087     (0)  
   Fe(OH)3-        5.181e-16   4.258e-16   -15.286   -15.371    -0.085     (0)  
Fe(3)         2.206e-06
   Fe(OH)2+        1.429e-06   1.180e-06    -5.845    -5.928    -0.083     (0)  
   Fe(OH)3         7.709e-07   7.809e-07    -6.113    -6.107     0.006     (0)  
   Fe(OH)4-        4.669e-09   3.854e-09    -8.331    -8.414    -0.083     (0)  
   FeOH+2          1.394e-09   6.361e-10    -8.856    -9.196    -0.341     (0)  
   FeH2PO4+2       5.814e-13   2.698e-13   -12.236   -12.569    -0.333     (0)  
   FeF+2           3.913e-13   1.785e-13   -12.407   -12.748    -0.341     (0)  
   FeHPO4+         1.139e-13   9.357e-14   -12.944   -13.029    -0.085     (0)  
   Fe+3            1.025e-13   2.420e-14   -12.989   -13.616    -0.627     (0)  
   FeF2+           4.238e-14   3.483e-14   -13.373   -13.458    -0.085     (0)  
   FeCl+2          2.214e-14   1.010e-14   -13.655   -13.996    -0.341     (0)  
   FeCl2+          1.993e-15   1.638e-15   -14.700   -14.786    -0.085     (0)  
   FeSO4+          1.886e-15   1.550e-15   -14.724   -14.810    -0.085     (0)  
   Fe2(OH)2+4      5.062e-16   2.044e-17   -15.296   -16.689    -1.394     (0)  
   FeF3            3.040e-16   3.079e-16   -15.517   -15.512     0.006     (0)  
[...]
   MgPO4-          1.045e-09   9.839e-10    -8.981    -9.007    -0.026     (0)  
   MgH2PO4+        9.342e-10   8.794e-10    -9.030    -9.056    -0.026     (0)  
   NaHPO4-         2.772e-10   2.610e-10    -9.557    -9.583    -0.026     (0)  
   FeH2PO4+        2.210e-10   2.081e-10    -9.656    -9.682    -0.026     (0)  
   KHPO4-          1.583e-11   1.490e-11   -10.800   -10.827    -0.026     (0)  
   PO4-3           9.028e-12   5.172e-12   -11.044   -11.286    -0.242    -29.21
   FeH2PO4+2       5.413e-17   4.251e-17   -16.267   -16.372    -0.105     (0)  
   FeHPO4+         3.305e-17   3.110e-17   -16.481   -16.507    -0.026     (0)  
S(6)          1.847e-04
   SO4-2           1.694e-04   1.328e-04    -3.771    -3.877    -0.106     11.23
   CaSO4           1.360e-05   1.361e-05    -4.867    -4.866     0.000      6.73
   MgSO4           1.328e-06   1.329e-06    -5.877    -5.877     0.000      5.06
   AmmHSO4-        1.684e-07   1.584e-07    -6.774    -6.800    -0.027     (0)  
   NaSO4-          1.187e-07   1.117e-07    -6.926    -6.952    -0.026     18.06
   MnSO4           7.237e-08   7.243e-08    -7.140    -7.140     0.000      4.30
   FeSO4           1.271e-08   1.272e-08    -7.896    -7.895     0.000     (0)  
   KSO4-           7.883e-09   7.421e-09    -8.103    -8.130    -0.026     (0)  
   HSO4-           4.441e-10   4.175e-10    -9.352    -9.379    -0.027     38.80
   CaHSO4+         3.491e-12   3.282e-12   -11.457   -11.484    -0.027     (0)  
   FeHSO4+         3.912e-15   3.678e-15   -14.408   -14.434    -0.027     (0)  
   FeSO4+          2.973e-16   2.798e-16   -15.527   -15.553    -0.026     (0)  
   Fe(SO4)2-       8.095e-19   7.610e-19   -18.092   -18.119    -0.027     (0)  
   FeHSO4+2        4.499e-23   3.514e-23   -22.347   -22.454    -0.107     (0)  
Si            2.800e-05
   H4SiO4          2.795e-05   2.797e-05    -4.554    -4.553     0.000     53.79
   H3SiO4-         5.309e-08   4.990e-08    -7.275    -7.302    -0.027     27.35
   H2SiO4-2        3.098e-14   2.433e-14   -13.509   -13.614    -0.105     (0)  
   SiF6-2          5.015e-37   3.932e-37   -36.300   -36.405    -0.106     41.14

------------------------------Saturation indices-------------------------------

	Phase               SI   log IAP   log K(282 K,   1 atm)

	Amm(g)           -8.59     -6.44    2.15  Amm
	Anhydrite        -2.95     -7.06   -4.11  CaSO4
	Aragonite        -0.85     -9.10   -8.25  CaCO3
	Calcite          -0.69     -9.10   -8.41  CaCO3
	Chalcedony       -0.81     -4.55   -3.75  SiO2
	Chrysotile      -11.83     22.45   34.28  Mg3Si2O5(OH)4
	CO2(g)           -2.39     -3.65   -1.25  CO2
	Dolomite         -2.50    -19.20  -16.70  CaMg(CO3)2
	Fe(OH)3(a)        1.60      6.50    4.89  Fe(OH)3
	Fluorite         -3.48    -14.29  -10.81  CaF2
	Goethite          6.90      6.50   -0.40  FeOOH
	Gypsum           -2.47     -7.06   -4.59  CaSO4:2H2O
	H2(g)           -22.73    -25.78   -3.05  H2
	H2O(g)           -1.94     -0.00    1.94  H2O
	Halite           -8.92     -7.36    1.56  NaCl
	Hausmannite     -14.51     50.68   65.19  Mn3O4
	Hematite         15.72     12.99   -2.73  Fe2O3
	Hydroxyapatite   -3.03     -4.96   -1.93  Ca5(PO4)3OH
	Jarosite-K       -7.37    -15.29   -7.92  KFe3(SO4)2(OH)6
	Manganite        -4.66     20.68   25.34  MnOOH
	Melanterite      -7.59    -10.01   -2.42  FeSO4:7H2O
	O2(g)           -43.49    -46.25   -2.76  O2
	Pyrochroite      -5.87      9.33   15.20  Mn(OH)2
	Pyrolusite      -12.04     32.03   44.07  MnO2:H2O
	Quartz           -0.33     -4.55   -4.23  SiO2
	Rhodochrosite    -0.22    -11.29  -11.07  MnCO3
	Sepiolite        -8.83      7.38   16.20  Mg2Si3O7.5OH:3H2O
	Sepiolite(d)    -11.28      7.38   18.66  Mg2Si3O7.5OH:3H2O
	Siderite         -1.26    -12.05  -10.79  FeCO3
	SiO2(a)          -1.70     -4.55   -2.85  SiO2
	Sylvite          -9.33     -8.61    0.73  KCl
	Talc             -9.97     13.34   23.31  Mg3Si4O10(OH)2
	Vivianite        -4.98    -40.98  -36.00  Fe3(PO4)2:8H2O


Initial solution 60.	

----------------------------------User print-----------------------------------

  1.0008e+00 

-----------------------------Solution composition------------------------------

	Elements           Molality       Moles

	Alkalinity        8.304e-03   8.304e-03
	Amm               4.847e-05   4.847e-05
	Ca                5.372e-03   5.372e-03
	Cl                1.193e-02   1.193e-02
	F                 1.534e-06   1.534e-06
	Fe                2.474e-06   2.474e-06
	K                 4.584e-05   4.584e-05
	Mg                8.773e-04   8.773e-04
	Mn                5.067e-05   5.067e-05
	Na                7.143e-03   7.143e-03
	P                 3.057e-06   3.057e-06
	S(6)              1.129e-04   1.129e-04
	Si                5.100e-05   5.100e-05

----------------------------Description of solution----------------------------

                                       pH  =   7.110    
                                       pe  =   4.000    
       Specific Conductance (uS/cm, 9 oC) = 1384
                          Density (g/cm3)  =   1.00083
                               Volume (L)  =   1.00108
                        Activity of water  =   0.999
                           Ionic strength  =   2.586e-02
                       Mass of water (kg)  =   1.000e+00
                    Total carbon (mol/kg)  =   9.846e-03
                       Total CO2 (mol/kg)  =   9.846e-03
                      Temperature (deg C)  =   9.50
                  Electrical balance (eq)  =  -6.220e-04
 Percent error, 100*(Cat-|An|)/(Cat+|An|)  =  -1.57
                               Iterations  =   9
                                  Total H  = 1.110209e+02
                                  Total O  = 5.553486e+01

----------------------------Distribution of species----------------------------

                                               Log       Log       Log    mole V
   Species          Molality    Activity  Molality  Activity     Gamma   cm3/mol

   H+              8.797e-08   7.762e-08    -7.056    -7.110    -0.054      0.00
   OH-             4.232e-08   3.622e-08    -7.373    -7.441    -0.068     -4.93
   H2O             5.551e+01   9.994e-01     1.744    -0.000     0.000     18.02
Amm           4.847e-05
   AmmH+           4.835e-05   4.108e-05    -4.316    -4.386    -0.071     17.36
   Amm             9.424e-08   9.480e-08    -7.026    -7.023     0.003     24.04
   AmmHSO4-        2.944e-08   2.535e-08    -7.531    -7.596    -0.065     (0)  
C(4)          9.846e-03
   HCO3-           7.966e-03   6.901e-03    -2.099    -2.161    -0.062     23.22
   CO2             1.566e-03   1.575e-03    -2.805    -2.803     0.003     33.83
   CaHCO3+         2.101e-04   1.826e-04    -3.678    -3.739    -0.061      8.98
   MgHCO3+         4.272e-05   3.669e-05    -4.369    -4.435    -0.066      4.96
   NaHCO3          2.600e-05   2.615e-05    -4.585    -4.582     0.003      2.13
   MnHCO3+         1.315e-05   1.136e-05    -4.881    -4.945    -0.063     (0)  
   CaCO3           1.115e-05   1.121e-05    -4.953    -4.950     0.003    -14.66
   CO3-2           5.059e-06   2.849e-06    -5.296    -5.545    -0.249     -7.13
   MnCO3           4.156e-06   4.181e-06    -5.381    -5.379     0.003     (0)  
   MgCO3           1.010e-06   1.016e-06    -5.996    -5.993     0.003    -17.07
   FeHCO3+         7.335e-07   6.315e-07    -6.135    -6.200    -0.065     (0)  
   NaCO3-          1.660e-07   1.429e-07    -6.780    -6.845    -0.065     -2.42
   FeCO3           6.217e-08   6.254e-08    -7.206    -7.204     0.003     (0)  
Ca            5.372e-03
   Ca+2            5.128e-03   2.889e-03    -2.290    -2.539    -0.249    -18.13
   CaHCO3+         2.101e-04   1.826e-04    -3.678    -3.739    -0.061      8.98
   CaSO4           2.163e-05   2.176e-05    -4.665    -4.662     0.003      6.76
   CaCO3           1.115e-05   1.121e-05    -4.953    -4.950     0.003    -14.66
   CaHPO4          7.163e-07   7.206e-07    -6.145    -6.142     0.003     (0)  
   CaH2PO4+        5.270e-08   4.565e-08    -7.278    -7.341    -0.062     (0)  
   CaPO4-          1.863e-08   1.614e-08    -7.730    -7.792    -0.062     (0)  
   CaOH+           7.169e-09   6.172e-09    -8.145    -8.210    -0.065     (0)  
   CaHSO4+         1.064e-11   9.158e-12   -10.973   -11.038    -0.065     (0)  
Cl            1.193e-02
   Cl-             1.193e-02   1.023e-02    -1.923    -1.990    -0.067     17.44
   MnCl+           8.907e-07   7.698e-07    -6.050    -6.114    -0.063      5.71
   FeCl+           1.501e-08   1.292e-08    -7.824    -7.889    -0.065     (0)  
   MnCl2           3.417e-09   3.437e-09    -8.466    -8.464     0.003     (0)  
   MnCl3-          1.120e-11   9.683e-12   -10.951   -11.014    -0.063     (0)  
   FeCl+2          1.177e-16   6.563e-17   -15.929   -16.183    -0.254     (0)  
   FeCl2+          5.826e-18   5.035e-18   -17.235   -17.298    -0.063     (0)  
   FeCl3           5.120e-21   5.150e-21   -20.291   -20.288     0.003     (0)  
F             1.534e-06
   F-              1.494e-06   1.279e-06    -5.826    -5.893    -0.068     -1.45
   MgF+            3.458e-08   2.979e-08    -7.461    -7.526    -0.065    -10.54
   NaF             4.495e-09   4.522e-09    -8.347    -8.345     0.003      6.52
   MnF+            1.892e-10   1.635e-10    -9.723    -9.787    -0.063     (0)  
   HF              1.130e-10   1.137e-10    -9.947    -9.944     0.003     11.60
   FeF+            1.360e-11   1.170e-11   -10.867   -10.932    -0.065     (0)  
   FeF+2           1.010e-15   5.633e-16   -14.996   -15.249    -0.254     (0)  
   HF2-            5.571e-16   4.796e-16   -15.254   -15.319    -0.065     21.15
   FeF2+           2.733e-17   2.361e-17   -16.563   -16.627    -0.063     (0)  
   FeF3            4.501e-20   4.528e-20   -19.347   -19.344     0.003     (0)  
   SiF6-2          9.977e-38   5.565e-38   -37.001   -37.255    -0.254     41.53
Fe(2)         2.423e-06
   Fe+2            1.603e-06   9.151e-07    -5.795    -6.039    -0.243    -23.04
   FeHCO3+         7.335e-07   6.315e-07    -6.135    -6.200    -0.065     (0)  
   FeCO3           6.217e-08   6.254e-08    -7.206    -7.204     0.003     (0)  
   FeCl+           1.501e-08   1.292e-08    -7.824    -7.889    -0.065     (0)  
   FeSO4           5.745e-09   5.780e-09    -8.241    -8.238     0.003     (0)  
   FeHPO4          2.236e-09   2.250e-09    -8.650    -8.648     0.003     (0)  
   FeOH+           1.271e-09   1.098e-09    -8.896    -8.959    -0.063     (0)  
   FeH2PO4+        4.480e-10   3.881e-10    -9.349    -9.411    -0.062     (0)  
   FeF+            1.360e-11   1.170e-11   -10.867   -10.932    -0.065     (0)  
   Fe(OH)2         2.885e-14   2.902e-14   -13.540   -13.537     0.003     (0)  
   FeHSO4+         3.370e-15   2.901e-15   -14.472   -14.537    -0.065     (0)  
   Fe(OH)3-        1.368e-17   1.182e-17   -16.864   -16.927    -0.063     (0)  
Fe(3)         5.115e-08
   Fe(OH)2+        2.998e-08   2.597e-08    -7.523    -7.585    -0.062     (0)  
   Fe(OH)3         2.100e-08   2.112e-08    -7.678    -7.675     0.003     (0)  
   Fe(OH)4-        1.484e-10   1.286e-10    -9.829    -9.891    -0.062     (0)  
   FeOH+2          2.031e-11   1.133e-11   -10.692   -10.946    -0.254     (0)  
   Fe+3            1.100e-15   3.568e-16   -14.958   -15.448    -0.489     (0)  
   FeF+2           1.010e-15   5.633e-16   -14.996   -15.249    -0.254     (0)  
   FeSO4+          1.510e-16   1.305e-16   -15.821   -15.885    -0.063     (0)  
   FeH2PO4+2       1.443e-16   8.125e-17   -15.841   -16.090    -0.249     (0)  
   FeCl+2          1.177e-16   6.563e-17   -15.929   -16.183    -0.254     (0)  
   FeHPO4+         4.026e-17   3.479e-17   -16.395   -16.458    -0.063     (0)  
   FeF2+           2.733e-17   2.361e-17   -16.563   -16.627    -0.063     (0)  
   FeCl2+          5.826e-18   5.035e-18   -17.235   -17.298    -0.063     (0)  
   Fe(SO4)2-       1.490e-19   1.282e-19   -18.827   -18.892    -0.065     (0)  
   Fe2(OH)2+4      7.456e-20   6.786e-21   -19.128   -20.168    -1.041     (0)  
   FeF3            4.501e-20   4.528e-20   -19.347   -19.344     0.003     (0)  
   FeCl3           5.120e-21   5.150e-21   -20.291   -20.288     0.003     (0)  
   FeHSO4+2        5.173e-23   2.841e-23   -22.286   -22.546    -0.260     (0)  
   Fe3(OH)4+5      7.042e-24   1.665e-25   -23.152   -24.779    -1.626     (0)  
H(0)          9.980e-26
   H2              4.990e-26   5.020e-26   -25.302   -25.299     0.003     28.63
K             4.584e-05
   K+              4.583e-05   3.926e-05    -4.339    -4.406    -0.067      8.47
   KSO4-           1.147e-08   9.932e-09    -7.941    -8.003    -0.062     (0)  
   KHPO4-          5.457e-11   4.727e-11   -10.263   -10.325    -0.062     (0)  
Mg            8.773e-04
   Mg+2            8.299e-04   4.740e-04    -3.081    -3.324    -0.243    -20.90
   MgHCO3+         4.272e-05   3.669e-05    -4.369    -4.435    -0.066      4.96
   MgSO4           3.472e-06   3.493e-06    -5.459    -5.457     0.003      5.09
   MgCO3           1.010e-06   1.016e-06    -5.996    -5.993     0.003    -17.07
   MgHPO4          1.589e-07   1.599e-07    -6.799    -6.796     0.003     (0)  
   MgF+            3.458e-08   2.979e-08    -7.461    -7.526    -0.065    -10.54
   MgH2PO4+        1.101e-08   9.541e-09    -7.958    -8.020    -0.062     (0)  
   MgOH+           5.808e-09   5.062e-09    -8.236    -8.296    -0.060     (0)  
   MgPO4-          4.124e-09   3.573e-09    -8.385    -8.447    -0.062     (0)  
Mn(2)         5.067e-05
   Mn+2            3.236e-05   1.847e-05    -4.490    -4.733    -0.243    -16.55
   MnHCO3+         1.315e-05   1.136e-05    -4.881    -4.945    -0.063     (0)  
   MnCO3           4.156e-06   4.181e-06    -5.381    -5.379     0.003     (0)  
   MnCl+           8.907e-07   7.698e-07    -6.050    -6.114    -0.063      5.71
   MnSO4           1.145e-07   1.152e-07    -6.941    -6.939     0.003      4.32
   MnCl2           3.417e-09   3.437e-09    -8.466    -8.464     0.003     (0)  
   MnOH+           1.866e-09   1.612e-09    -8.729    -8.793    -0.063     (0)  
   MnF+            1.892e-10   1.635e-10    -9.723    -9.787    -0.063     (0)  
   MnCl3-          1.120e-11   9.683e-12   -10.951   -11.014    -0.063     (0)  
   Mn(OH)3-        7.230e-19   6.249e-19   -18.141   -18.204    -0.063     (0)  
Mn(3)         1.617e-27
   Mn+3            1.617e-27   5.242e-28   -26.791   -27.280    -0.489     (0)  
Na            7.143e-03
   Na+             7.116e-03   6.144e-03    -2.148    -2.212    -0.064     -2.28
   NaHCO3          2.600e-05   2.615e-05    -4.585    -4.582     0.003      2.13
   NaSO4-          1.535e-06   1.329e-06    -5.814    -5.876    -0.062     18.39
   NaCO3-          1.660e-07   1.429e-07    -6.780    -6.845    -0.065     -2.42
   NaHPO4-         8.539e-09   7.397e-09    -8.069    -8.131    -0.062     (0)  
   NaF             4.495e-09   4.522e-09    -8.347    -8.345     0.003      6.52
   NaOH            2.212e-20   2.225e-20   -19.655   -19.653     0.003     (0)  
O(0)          0.000e+00
   O2              0.000e+00   0.000e+00   -47.061   -47.058     0.003     28.89
P             3.057e-06
   HPO4-2          1.107e-06   6.175e-07    -5.956    -6.209    -0.254      5.54
   H2PO4-          9.768e-07   8.461e-07    -6.010    -6.073    -0.062     30.06
   CaHPO4          7.163e-07   7.206e-07    -6.145    -6.142     0.003     (0)  
   MgHPO4          1.589e-07   1.599e-07    -6.799    -6.796     0.003     (0)  
   CaH2PO4+        5.270e-08   4.565e-08    -7.278    -7.341    -0.062     (0)  
   CaPO4-          1.863e-08   1.614e-08    -7.730    -7.792    -0.062     (0)  
   MgH2PO4+        1.101e-08   9.541e-09    -7.958    -8.020    -0.062     (0)  
   NaHPO4-         8.539e-09   7.397e-09    -8.069    -8.131    -0.062     (0)  
   MgPO4-          4.124e-09   3.573e-09    -8.385    -8.447    -0.062     (0)  
   FeHPO4          2.236e-09   2.250e-09    -8.650    -8.648     0.003     (0)  
   FeH2PO4+        4.480e-10   3.881e-10    -9.349    -9.411    -0.062     (0)  
   KHPO4-          5.457e-11   4.727e-11   -10.263   -10.325    -0.062     (0)  
   PO4-3           1.018e-11   2.587e-12   -10.992   -11.587    -0.595    -28.48
   FeH2PO4+2       1.443e-16   8.125e-17   -15.841   -16.090    -0.249     (0)  
   FeHPO4+         4.026e-17   3.479e-17   -16.395   -16.458    -0.063     (0)  
S(6)          1.129e-04
   SO4-2           8.606e-05   4.789e-05    -4.065    -4.320    -0.255     11.67
   CaSO4           2.163e-05   2.176e-05    -4.665    -4.662     0.003      6.76
   MgSO4           3.472e-06   3.493e-06    -5.459    -5.457     0.003      5.09
   NaSO4-          1.535e-06   1.329e-06    -5.814    -5.876    -0.062     18.39
   MnSO4           1.145e-07   1.152e-07    -6.941    -6.939     0.003      4.32
   AmmHSO4-        2.944e-08   2.535e-08    -7.531    -7.596    -0.065     (0)  
   KSO4-           1.147e-08   9.932e-09    -7.941    -8.003    -0.062     (0)  
   FeSO4           5.745e-09   5.780e-09    -8.241    -8.238     0.003     (0)  
   HSO4-           3.063e-10   2.637e-10    -9.514    -9.579    -0.065     38.94
   CaHSO4+         1.064e-11   9.158e-12   -10.973   -11.038    -0.065     (0)  
   FeHSO4+         3.370e-15   2.901e-15   -14.472   -14.537    -0.065     (0)  
   FeSO4+          1.510e-16   1.305e-16   -15.821   -15.885    -0.063     (0)  
   Fe(SO4)2-       1.490e-19   1.282e-19   -18.827   -18.892    -0.065     (0)  
   FeHSO4+2        5.173e-23   2.841e-23   -22.286   -22.546    -0.260     (0)  
Si            5.100e-05
   H4SiO4          5.094e-05   5.124e-05    -4.293    -4.290     0.003     53.73
   H3SiO4-         6.232e-08   5.352e-08    -7.205    -7.271    -0.066     27.46
   H2SiO4-2        2.751e-14   1.549e-14   -13.560   -13.810    -0.249     (0)  
   SiF6-2          9.977e-38   5.565e-38   -37.001   -37.255    -0.254     41.53

------------------------------Saturation indices-------------------------------

	Phase               SI   log IAP   log K(282 K,   1 atm)

	Amm(g)           -9.16     -7.02    2.14  Amm
	Anhydrite        -2.74     -6.86   -4.12  CaSO4
	Aragonite         0.17     -8.08   -8.25  CaCO3
	Calcite           0.32     -8.08   -8.41  CaCO3
	Chalcedony       -0.55     -4.29   -3.74  SiO2
	Chrysotile      -10.12     24.11   34.22  Mg3Si2O5(OH)4
	CO2(g)           -1.54     -2.80   -1.26  CO2
	Dolomite         -0.24    -16.95  -16.71  CaMg(CO3)2
	Fe(OH)3(a)        0.99      5.88    4.89  Fe(OH)3
	Fluorite         -3.52    -14.33  -10.80  CaF2
	Goethite          6.30      5.88   -0.42  FeOOH
	Gypsum           -2.27     -6.86   -4.59  CaSO4:2H2O
	H2(g)           -22.25    -25.30   -3.05  H2
	H2O(g)           -1.93     -0.00    1.92  H2O
	Halite           -5.76     -4.20    1.56  NaCl
	Hausmannite     -14.40     50.68   65.08  Mn3O4
	Hematite         14.53     11.76   -2.77  Fe2O3
	Hydroxyapatite   -0.92     -2.88   -1.97  Ca5(PO4)3OH
	Jarosite-K       -8.78    -16.73   -7.95  KFe3(SO4)2(OH)6
	Manganite        -4.74     20.60   25.34  MnOOH
	Melanterite      -7.94    -10.36   -2.42  FeSO4:7H2O
	O2(g)           -44.30    -47.06   -2.76  O2
	Pyrochroite      -5.71      9.49   15.20  Mn(OH)2
	Pyrolusite      -12.29     31.71   44.00  MnO2:H2O
	Quartz           -0.07     -4.29   -4.22  SiO2
	Rhodochrosite     0.79    -10.28  -11.07  MnCO3
	Sepiolite        -7.27      8.92   16.19  Mg2Si3O7.5OH:3H2O
	Sepiolite(d)     -9.74      8.92   18.66  Mg2Si3O7.5OH:3H2O
	Siderite         -0.79    -11.58  -10.79  FeCO3
	SiO2(a)          -1.44     -4.29   -2.85  SiO2
	Sylvite          -7.13     -6.40    0.73  KCl
	Talc             -7.74     15.53   23.26  Mg3Si4O10(OH)2
	Vivianite        -5.29    -41.29  -36.00  Fe3(PO4)2:8H2O


------------------
End of simulation.
------------------

------------------------------------
Reading input data for simulation 2.
------------------------------------

------------------------------
End of Run after 0.19 Seconds.
------------------------------

