   Input file: desc
  Output file: desc.out
Database file: ../database/phreeqc.dat

------------------
Reading data base.
------------------

	SOLUTION_MASTER_SPECIES
	SOLUTION_SPECIES
	PHASES
	EXCHANGE_MASTER_SPECIES
	EXCHANGE_SPECIES
	SURFACE_MASTER_SPECIES
	SURFACE_SPECIES
	RATES
	END
------------------------------------
Reading input data for simulation 1.
------------------------------------

	DATABASE ../database/phreeqc.dat
	USER_PRINT
	10 print Description, -la("H+"),  tot("Ca")
	SOLUTION_SPREAD
	Description		 pH		 Ca
			 		 mg/kgw
	A		 8.0		 100
	B		 7.0		 50
	C		 6.0		 25
	END
-------------------------------------------
Beginning of initial solution calculations.
-------------------------------------------

Initial solution 1.	 A 

----------------------------------User print-----------------------------------

 A             8   2.4950e-03 

-----------------------------Solution composition------------------------------

	Elements           Molality       Moles

	Ca                2.495e-03   2.495e-03

----------------------------Description of solution----------------------------

                                       pH  =   8.000    
                                       pe  =   4.000    
       Specific Conductance (uS/cm, 25 oC) = 262
                          Density (g/cm3)  =   0.99714
                        Activity of water  =   1.000
                           Ionic strength  =   4.991e-03
                       Mass of water (kg)  =   1.000e+00
                 Total alkalinity (eq/kg)  =   1.119e-06
                    Total carbon (mol/kg)  =   0.000e+00
                       Total CO2 (mol/kg)  =   0.000e+00
                      Temperature (deg C)  =  25.00
                  Electrical balance (eq)  =   4.989e-03
 Percent error, 100*(Cat-|An|)/(Cat+|An|)  =  99.96
                               Iterations  =   4
                                  Total H  = 1.110124e+02
                                  Total O  = 5.550622e+01

----------------------------Distribution of species----------------------------

                                            Log       Log         Log     mole V
   Species          Molality    Activity  Molality  Activity     Gamma   cm3/mol

   OH-             1.096e-06   1.015e-06    -5.960    -5.993    -0.033     -3.69
   H+              1.071e-08   1.000e-08    -7.970    -8.000    -0.030      0.00
   H2O             5.551e+01   1.000e+00     1.744    -0.000     0.000     18.07
Ca            2.495e-03
   Ca+2            2.495e-03   1.857e-03    -2.603    -2.731    -0.128    -18.16
   CaOH+           3.324e-08   3.081e-08    -7.478    -7.511    -0.033     (0)  
H(0)          1.414e-27
   H2              7.071e-28   7.079e-28   -27.150   -27.150     0.000     20.00
O(0)          1.661e-38
   O2              8.307e-39   8.317e-39   -38.081   -38.080     0.000     35.00

------------------------------Saturation indices-------------------------------

	Phase               SI   log IAP   log K(298 K,   1 atm)

	H2(g)           -24.05    -27.15   -3.10  H2
	H2O(g)           -1.50     -0.00    1.50  H2O
	O2(g)           -35.19    -38.08   -2.89  O2


Initial solution 2.	 B 

----------------------------------User print-----------------------------------

 B             7   1.2475e-03 

-----------------------------Solution composition------------------------------

	Elements           Molality       Moles

	Ca                1.248e-03   1.248e-03

----------------------------Description of solution----------------------------

                                       pH  =   7.000    
                                       pe  =   4.000    
       Specific Conductance (uS/cm, 25 oC) = 135
                          Density (g/cm3)  =   0.99707
                        Activity of water  =   1.000
                           Ionic strength  =   2.495e-03
                       Mass of water (kg)  =   1.000e+00
                 Total alkalinity (eq/kg)  =   3.858e-09
                    Total carbon (mol/kg)  =   0.000e+00
                       Total CO2 (mol/kg)  =   0.000e+00
                      Temperature (deg C)  =  25.00
                  Electrical balance (eq)  =   2.495e-03
 Percent error, 100*(Cat-|An|)/(Cat+|An|)  =  99.99
                               Iterations  =   4
                                  Total H  = 1.110124e+02
                                  Total O  = 5.550622e+01

----------------------------Distribution of species----------------------------

                                            Log       Log         Log     mole V
   Species          Molality    Activity  Molality  Activity     Gamma   cm3/mol

   OH-             1.073e-07   1.015e-07    -6.969    -6.993    -0.024     -3.71
   H+              1.052e-07   1.000e-07    -6.978    -7.000    -0.022      0.00
   H2O             5.551e+01   1.000e+00     1.744    -0.000     0.000     18.07
Ca            1.248e-03
   Ca+2            1.248e-03   1.005e-03    -2.904    -2.998    -0.094    -18.22
   CaOH+           1.763e-09   1.668e-09    -8.754    -8.778    -0.024     (0)  
H(0)          1.415e-25
   H2              7.075e-26   7.079e-26   -25.150   -25.150     0.000     20.00
O(0)          0.000e+00
   O2              0.000e+00   0.000e+00   -42.080   -42.080     0.000     35.00

------------------------------Saturation indices-------------------------------

	Phase               SI   log IAP   log K(298 K,   1 atm)

	H2(g)           -22.05    -25.15   -3.10  H2
	H2O(g)           -1.50     -0.00    1.50  H2O
	O2(g)           -39.19    -42.08   -2.89  O2


Initial solution 3.	 C 

----------------------------------User print-----------------------------------

 C             6   6.2375e-04 

-----------------------------Solution composition------------------------------

	Elements           Molality       Moles

	Ca                6.238e-04   6.238e-04

----------------------------Description of solution----------------------------

                                       pH  =   6.000    
                                       pe  =   4.000    
       Specific Conductance (uS/cm, 25 oC) = 69
                          Density (g/cm3)  =   0.99704
                        Activity of water  =   1.000
                           Ionic strength  =   1.248e-03
                       Mass of water (kg)  =   1.000e+00
                 Total alkalinity (eq/kg)  =  -1.028e-06
                    Total carbon (mol/kg)  =   0.000e+00
                       Total CO2 (mol/kg)  =   0.000e+00
                      Temperature (deg C)  =  25.00
                  Electrical balance (eq)  =   1.249e-03
 Percent error, 100*(Cat-|An|)/(Cat+|An|)  = 100.00
                               Iterations  =   4
                                  Total H  = 1.110124e+02
                                  Total O  = 5.550622e+01

----------------------------Distribution of species----------------------------

                                            Log       Log         Log     mole V
   Species          Molality    Activity  Molality  Activity     Gamma   cm3/mol

   H+              1.038e-06   1.000e-06    -5.984    -6.000    -0.016      0.00
   OH-             1.057e-08   1.015e-08    -7.976    -7.993    -0.017     -3.73
   H2O             5.551e+01   1.000e+00     1.744    -0.000     0.000     18.07
Ca            6.238e-04
   Ca+2            6.238e-04   5.335e-04    -3.205    -3.273    -0.068    -18.26
   CaOH+           9.211e-11   8.853e-11   -10.036   -10.053    -0.017     (0)  
H(0)          1.415e-23
   H2              7.077e-24   7.079e-24   -23.150   -23.150     0.000     20.00
O(0)          0.000e+00
   O2              0.000e+00   0.000e+00   -46.080   -46.080     0.000     35.00

------------------------------Saturation indices-------------------------------

	Phase               SI   log IAP   log K(298 K,   1 atm)

	H2(g)           -20.05    -23.15   -3.10  H2
	H2O(g)           -1.50     -0.00    1.50  H2O
	O2(g)           -43.19    -46.08   -2.89  O2


------------------
End of simulation.
------------------

------------------------------------
Reading input data for simulation 2.
------------------------------------

	EQUILIBRIUM_PHASES
	Calcite		 0		 0
	CO2(g)		 -3.5
	SAVE EQUILIBRIUM_PHASES 1
	END
------------------
End of simulation.
------------------

------------------------------------
Reading input data for simulation 3.
------------------------------------

	USE SOLUTION 1     #'Description' in USER_PRINT stuck on last one, ie C
	USE EQUILIBRIUM_PHASES 1
	END
-----------------------------------------
Beginning of batch-reaction calculations.
-----------------------------------------

Reaction step 1.

Using solution 1.	 A 
Using pure phase assemblage 1.	

----------------------------------User print-----------------------------------

 A    5.7544e+00   2.4950e-03 

-------------------------------Phase assemblage--------------------------------

                                                      Moles in assemblage
Phase               SI  log IAP  log K(T, P)   Initial       Final       Delta

CO2(g)           -3.50    -4.97     -1.47    1.000e+01   1.000e+01  -1.375e-05
Calcite          -4.39   -12.87     -8.48    0.000e+00           0   0.000e+00

-----------------------------Solution composition------------------------------

	Elements           Molality       Moles

	C                 1.375e-05   1.375e-05
	Ca                2.495e-03   2.495e-03

----------------------------Description of solution----------------------------

                                       pH  =   5.754      Charge balance
                                       pe  =  -0.227      Adjusted to redox equilibrium
       Specific Conductance (uS/cm, 25 oC) = 262
                          Density (g/cm3)  =   0.99714
                        Activity of water  =   1.000
                           Ionic strength  =   4.992e-03
                       Mass of water (kg)  =   1.000e+00
                 Total alkalinity (eq/kg)  =   1.119e-06
                       Total CO2 (mol/kg)  =   1.375e-05
                      Temperature (deg C)  =  25.00
                  Electrical balance (eq)  =   4.989e-03
 Percent error, 100*(Cat-|An|)/(Cat+|An|)  =  99.88
                               Iterations  =  16
                                  Total H  = 1.110124e+02
                                  Total O  = 5.550625e+01

----------------------------Distribution of species----------------------------

                                            Log       Log         Log     mole V
   Species          Molality    Activity  Molality  Activity     Gamma   cm3/mol

   H+              1.886e-06   1.760e-06    -5.725    -5.754    -0.030      0.00
   OH-             6.228e-09   5.768e-09    -8.206    -8.239    -0.033     -3.69
   H2O             5.551e+01   1.000e+00     1.744    -0.000     0.000     18.07
C(-4)         1.593e-25
   CH4             1.593e-25   1.595e-25   -24.798   -24.797     0.000     33.00
C(4)          1.375e-05
   CO2             1.075e-05   1.077e-05    -4.968    -4.968     0.000     24.85
   HCO3-           2.928e-06   2.720e-06    -5.533    -5.565    -0.032     24.94
   CaHCO3+         6.936e-08   6.443e-08    -7.159    -7.191    -0.032     20.07
   CaCO3           2.257e-10   2.260e-10    -9.646    -9.646     0.000     25.00
   CO3-2           9.731e-11   7.246e-11   -10.012   -10.140    -0.128     -3.72
Ca            2.495e-03
   Ca+2            2.495e-03   1.857e-03    -2.603    -2.731    -0.128    -18.16
   CaHCO3+         6.936e-08   6.443e-08    -7.159    -7.191    -0.032     20.07
   CaCO3           2.257e-10   2.260e-10    -9.646    -9.646     0.000     25.00
   CaOH+           1.888e-10   1.750e-10    -9.724    -9.757    -0.033     (0)  
H(0)          1.246e-14
   H2              6.231e-15   6.238e-15   -14.205   -14.205     0.000     20.00
O(0)          0.000e+00
   O2              0.000e+00   0.000e+00   -63.971   -63.970     0.000     35.00

------------------------------Saturation indices-------------------------------

	Phase               SI   log IAP   log K(298 K,   1 atm)

	Aragonite        -4.54    -12.87   -8.34  CaCO3
	Calcite          -4.39    -12.87   -8.48  CaCO3
	CH4(g)          -21.95    -24.80   -2.84  CH4
	CO2(g)           -3.50     -4.97   -1.47  CO2	 Pressure   0.0 atm, phi 1.000.
	H2(g)           -11.10    -14.20   -3.10  H2
	H2O(g)           -1.50     -0.00    1.50  H2O
	O2(g)           -61.08    -63.97   -2.89  O2


------------------
End of simulation.
------------------

------------------------------------
Reading input data for simulation 4.
------------------------------------

	USE SOLUTION 2
	USE EQUILIBRIUM_PHASES 1
	END
-----------------------------------------
Beginning of batch-reaction calculations.
-----------------------------------------

Reaction step 1.

Using solution 2.	 B 
Using pure phase assemblage 1.	

----------------------------------User print-----------------------------------

 B    5.6564e+00   1.2475e-03 

-------------------------------Phase assemblage--------------------------------

                                                      Moles in assemblage
Phase               SI  log IAP  log K(T, P)   Initial       Final       Delta

CO2(g)           -3.50    -4.97     -1.47    1.000e+01   1.000e+01  -1.308e-05
Calcite          -4.85   -13.33     -8.48    0.000e+00           0   0.000e+00

-----------------------------Solution composition------------------------------

	Elements           Molality       Moles

	C                 1.308e-05   1.308e-05
	Ca                1.248e-03   1.248e-03

----------------------------Description of solution----------------------------

                                       pH  =   5.656      Charge balance
                                       pe  =  -0.221      Adjusted to redox equilibrium
       Specific Conductance (uS/cm, 25 oC) = 136
                          Density (g/cm3)  =   0.99707
                        Activity of water  =   1.000
                           Ionic strength  =   2.497e-03
                       Mass of water (kg)  =   1.000e+00
                 Total alkalinity (eq/kg)  =   3.858e-09
                       Total CO2 (mol/kg)  =   1.308e-05
                      Temperature (deg C)  =  25.00
                  Electrical balance (eq)  =   2.495e-03
 Percent error, 100*(Cat-|An|)/(Cat+|An|)  =  99.82
                               Iterations  =  13
                                  Total H  = 1.110124e+02
                                  Total O  = 5.550624e+01

----------------------------Distribution of species----------------------------

                                            Log       Log         Log     mole V
   Species          Molality    Activity  Molality  Activity     Gamma   cm3/mol

   H+              2.322e-06   2.206e-06    -5.634    -5.656    -0.022      0.00
   OH-             4.866e-09   4.603e-09    -8.313    -8.337    -0.024     -3.71
   H2O             5.551e+01   1.000e+00     1.744    -0.000     0.000     18.07
C(-4)         8.638e-25
   CH4             8.638e-25   8.643e-25   -24.064   -24.063     0.000     33.00
C(4)          1.308e-05
   CO2             1.076e-05   1.077e-05    -4.968    -4.968     0.000     24.85
   HCO3-           2.291e-06   2.171e-06    -5.640    -5.663    -0.023     24.91
   CaHCO3+         2.938e-08   2.784e-08    -7.532    -7.555    -0.023     20.05
   CaCO3           7.788e-11   7.792e-11   -10.109   -10.108     0.000     25.00
   CO3-2           5.725e-11   4.615e-11   -10.242   -10.336    -0.094     -3.80
Ca            1.248e-03
   Ca+2            1.247e-03   1.005e-03    -2.904    -2.998    -0.094    -18.22
   CaHCO3+         2.938e-08   2.784e-08    -7.532    -7.555    -0.023     20.05
   CaOH+           7.990e-11   7.562e-11   -10.097   -10.121    -0.024     (0)  
   CaCO3           7.788e-11   7.792e-11   -10.109   -10.108     0.000     25.00
H(0)          1.903e-14
   H2              9.513e-15   9.519e-15   -14.022   -14.021     0.000     20.00
O(0)          0.000e+00
   O2              0.000e+00   0.000e+00   -64.337   -64.337     0.000     35.00

------------------------------Saturation indices-------------------------------

	Phase               SI   log IAP   log K(298 K,   1 atm)

	Aragonite        -5.00    -13.33   -8.34  CaCO3
	Calcite          -4.85    -13.33   -8.48  CaCO3
	CH4(g)          -21.22    -24.06   -2.84  CH4
	CO2(g)           -3.50     -4.97   -1.47  CO2	 Pressure   0.0 atm, phi 1.000.
	H2(g)           -10.92    -14.02   -3.10  H2
	H2O(g)           -1.50     -0.00    1.50  H2O
	O2(g)           -61.44    -64.34   -2.89  O2


------------------
End of simulation.
------------------

------------------------------------
Reading input data for simulation 5.
------------------------------------

	USE SOLUTION 3
	USE EQUILIBRIUM_PHASES 1
	END
-----------------------------------------
Beginning of batch-reaction calculations.
-----------------------------------------

Reaction step 1.

Using solution 3.	 C 
Using pure phase assemblage 1.	

----------------------------------User print-----------------------------------

 C    5.5607e+00   6.2375e-04 

-------------------------------Phase assemblage--------------------------------

                                                      Moles in assemblage
Phase               SI  log IAP  log K(T, P)   Initial       Final       Delta

CO2(g)           -3.50    -4.97     -1.47    1.000e+01   1.000e+01  -1.259e-05
Calcite          -5.32   -13.80     -8.48    0.000e+00           0   0.000e+00

-----------------------------Solution composition------------------------------

	Elements           Molality       Moles

	C                 1.259e-05   1.259e-05
	Ca                6.238e-04   6.238e-04

----------------------------Description of solution----------------------------

                                       pH  =   5.561      Charge balance
                                       pe  =   0.034      Adjusted to redox equilibrium
       Specific Conductance (uS/cm, 25 oC) = 70
                          Density (g/cm3)  =   0.99704
                        Activity of water  =   1.000
                           Ionic strength  =   1.250e-03
                       Mass of water (kg)  =   1.000e+00
                 Total alkalinity (eq/kg)  =  -1.028e-06
                       Total CO2 (mol/kg)  =   1.259e-05
                      Temperature (deg C)  =  25.00
                  Electrical balance (eq)  =   1.249e-03
 Percent error, 100*(Cat-|An|)/(Cat+|An|)  =  99.71
                               Iterations  =  12
                                  Total H  = 1.110124e+02
                                  Total O  = 5.550624e+01

----------------------------Distribution of species----------------------------

                                            Log       Log         Log     mole V
   Species          Molality    Activity  Molality  Activity     Gamma   cm3/mol

   H+              2.855e-06   2.750e-06    -5.544    -5.561    -0.016      0.00
   OH-             3.844e-09   3.693e-09    -8.415    -8.433    -0.017     -3.73
   H2O             5.551e+01   1.000e+00     1.744    -0.000     0.000     18.07
C(-4)         4.635e-26
   CH4             4.635e-26   4.636e-26   -25.334   -25.334     0.000     33.00
C(4)          1.259e-05
   CO2             1.076e-05   1.077e-05    -4.968    -4.968     0.000     24.85
   HCO3-           1.811e-06   1.742e-06    -5.742    -5.759    -0.017     24.90
   CaHCO3+         1.232e-08   1.185e-08    -7.909    -7.926    -0.017     20.03
   CO3-2           3.473e-11   2.970e-11   -10.459   -10.527    -0.068     -3.86
   CaCO3           2.661e-11   2.662e-11   -10.575   -10.575     0.000     25.00
Ca            6.238e-04
   Ca+2            6.237e-04   5.334e-04    -3.205    -3.273    -0.068    -18.26
   CaHCO3+         1.232e-08   1.185e-08    -7.909    -7.926    -0.017     20.03
   CaOH+           3.350e-11   3.219e-11   -10.475   -10.492    -0.017     (0)  
   CaCO3           2.661e-11   2.662e-11   -10.575   -10.575     0.000     25.00
H(0)          9.159e-15
   H2              4.580e-15   4.581e-15   -14.339   -14.339     0.000     20.00
O(0)          0.000e+00
   O2              0.000e+00   0.000e+00   -63.702   -63.702     0.000     35.00

------------------------------Saturation indices-------------------------------

	Phase               SI   log IAP   log K(298 K,   1 atm)

	Aragonite        -5.46    -13.80   -8.34  CaCO3
	Calcite          -5.32    -13.80   -8.48  CaCO3
	CH4(g)          -22.49    -25.33   -2.84  CH4
	CO2(g)           -3.50     -4.97   -1.47  CO2	 Pressure   0.0 atm, phi 1.000.
	H2(g)           -11.24    -14.34   -3.10  H2
	H2O(g)           -1.50     -0.00    1.50  H2O
	O2(g)           -60.81    -63.70   -2.89  O2


------------------
End of simulation.
------------------

------------------------------------
Reading input data for simulation 6.
------------------------------------

	SOLUTION 0 Infilling
	ADVECTION
	cells 3
	shifts 3
	END
-------------------------------------------
Beginning of initial solution calculations.
-------------------------------------------

Initial solution 0.	Infilling

----------------------------------User print-----------------------------------

Infilling   6.9999e+00            0 

-----------------------------Solution composition------------------------------

	Elements           Molality       Moles

	Pure water     

----------------------------Description of solution----------------------------

                                       pH  =   7.000    
                                       pe  =   4.000    
       Specific Conductance (uS/cm, 25 oC) = 0
                          Density (g/cm3)  =   0.99700
                        Activity of water  =   1.000
                           Ionic strength  =   1.008e-07
                       Mass of water (kg)  =   1.000e+00
                 Total alkalinity (eq/kg)  =   1.550e-09
                    Total carbon (mol/kg)  =   0.000e+00
                       Total CO2 (mol/kg)  =   0.000e+00
                      Temperature (deg C)  =  25.00
                  Electrical balance (eq)  =  -1.550e-09
 Percent error, 100*(Cat-|An|)/(Cat+|An|)  =  -0.77
                               Iterations  =   0
                                  Total H  = 1.110124e+02
                                  Total O  = 5.550622e+01

----------------------------Distribution of species----------------------------

                                            Log       Log         Log     mole V
   Species          Molality    Activity  Molality  Activity     Gamma   cm3/mol

   OH-             1.016e-07   1.016e-07    -6.993    -6.993    -0.000     -3.76
   H+              1.001e-07   1.000e-07    -7.000    -7.000    -0.000      0.00
   H2O             5.551e+01   1.000e+00     1.744     0.000     0.000     18.07
H(0)          1.416e-25
   H2              7.079e-26   7.079e-26   -25.150   -25.150     0.000     20.00
O(0)          0.000e+00
   O2              0.000e+00   0.000e+00   -42.080   -42.080     0.000     35.00

------------------------------Saturation indices-------------------------------

	Phase               SI   log IAP   log K(298 K,   1 atm)

	H2(g)           -22.05    -25.15   -3.10  H2
	H2O(g)           -1.50      0.00    1.50  H2O
	O2(g)           -39.19    -42.08   -2.89  O2


------------------------------------
Beginning of advection calculations.
------------------------------------

Beginning of advection time step 1, cumulative pore volumes 0.333333.

Cell 1.

Using solution 1.	Infilling
Using pure phase assemblage 1.	

----------------------------------User print-----------------------------------

Cell 1   5.6596e+00            0 

-------------------------------Phase assemblage--------------------------------

                                                      Moles in assemblage
Phase               SI  log IAP  log K(T, P)   Initial       Final       Delta

CO2(g)           -3.50    -4.97     -1.47    1.000e+01   1.000e+01  -1.296e-05
Calcite              Element not present.    0.000e+00           0   0.000e+00

-----------------------------Solution composition------------------------------

	Elements           Molality       Moles

	C                 1.296e-05   1.296e-05

----------------------------Description of solution----------------------------

                                       pH  =   5.660      Charge balance
                                       pe  =   0.190      Adjusted to redox equilibrium
       Specific Conductance (uS/cm, 25 oC) = 0
                          Density (g/cm3)  =   0.99700
                        Activity of water  =   1.000
                           Ionic strength  =   2.194e-06
                       Mass of water (kg)  =   1.000e+00
                 Total alkalinity (eq/kg)  =   1.550e-09
                       Total CO2 (mol/kg)  =   1.296e-05
                      Temperature (deg C)  =  25.00
                  Electrical balance (eq)  =  -1.550e-09
 Percent error, 100*(Cat-|An|)/(Cat+|An|)  =  -0.04
                               Iterations  =  12
                                  Total H  = 1.110124e+02
                                  Total O  = 5.550624e+01

----------------------------Distribution of species----------------------------

                                            Log       Log         Log     mole V
   Species          Molality    Activity  Molality  Activity     Gamma   cm3/mol

   H+              2.194e-06   2.190e-06    -5.659    -5.660    -0.001      0.00
   OH-             4.645e-09   4.637e-09    -8.333    -8.334    -0.001     -3.76
   H2O             5.551e+01   1.000e+00     1.744    -0.000     0.000     18.07
C(-4)         4.227e-28
   CH4             4.227e-28   4.227e-28   -27.374   -27.374     0.000     33.00
C(4)          1.296e-05
   CO2             1.077e-05   1.077e-05    -4.968    -4.968     0.000     24.85
   HCO3-           2.190e-06   2.187e-06    -5.659    -5.660    -0.001     24.86
   CO3-2           4.715e-11   4.683e-11   -10.326   -10.329    -0.003     -3.98
H(0)          2.831e-15
   H2              1.416e-15   1.416e-15   -14.849   -14.849     0.000     20.00
O(0)          0.000e+00
   O2              0.000e+00   0.000e+00   -62.682   -62.682     0.000     35.00

------------------------------Saturation indices-------------------------------

	Phase               SI   log IAP   log K(298 K,   1 atm)

	CH4(g)          -24.53    -27.37   -2.84  CH4
	CO2(g)           -3.50     -4.97   -1.47  CO2	 Pressure   0.0 atm, phi 1.000.
	H2(g)           -11.75    -14.85   -3.10  H2
	H2O(g)           -1.50     -0.00    1.50  H2O
	O2(g)           -59.79    -62.68   -2.89  O2



Cell 2.

Using solution 2.	 A 

----------------------------------User print-----------------------------------

Cell 2   8.0000e+00   2.4950e-03 

-----------------------------Solution composition------------------------------

	Elements           Molality       Moles

	Ca                2.495e-03   2.495e-03

----------------------------Description of solution----------------------------

                                       pH  =   8.000      Charge balance
                                       pe  =  -2.291      Adjusted to redox equilibrium
       Specific Conductance (uS/cm, 25 oC) = 262
                          Density (g/cm3)  =   0.99714
                        Activity of water  =   1.000
                           Ionic strength  =   4.991e-03
                       Mass of water (kg)  =   1.000e+00
                 Total alkalinity (eq/kg)  =   1.119e-06
                    Total carbon (mol/kg)  =   0.000e+00
                       Total CO2 (mol/kg)  =   0.000e+00
                      Temperature (deg C)  =  25.00
                  Electrical balance (eq)  =   4.989e-03
 Percent error, 100*(Cat-|An|)/(Cat+|An|)  =  99.96
                               Iterations  =  11
                                  Total H  = 1.110124e+02
                                  Total O  = 5.550622e+01

----------------------------Distribution of species----------------------------

                                            Log       Log         Log     mole V
   Species          Molality    Activity  Molality  Activity     Gamma   cm3/mol

   OH-             1.096e-06   1.015e-06    -5.960    -5.993    -0.033     -3.69
   H+              1.071e-08   1.000e-08    -7.970    -8.000    -0.030      0.00
   H2O             5.551e+01   1.000e+00     1.744    -0.000     0.000     18.07
Ca            2.495e-03
   Ca+2            2.495e-03   1.857e-03    -2.603    -2.731    -0.128    -18.16
   CaOH+           3.324e-08   3.081e-08    -7.478    -7.511    -0.033     (0)  
H(0)          5.390e-15
   H2              2.695e-15   2.698e-15   -14.569   -14.569     0.000     20.00
O(0)          0.000e+00
   O2              0.000e+00   0.000e+00   -63.243   -63.242     0.000     35.00

------------------------------Saturation indices-------------------------------

	Phase               SI   log IAP   log K(298 K,   1 atm)

	H2(g)           -11.47    -14.57   -3.10  H2
	H2O(g)           -1.50     -0.00    1.50  H2O
	O2(g)           -60.35    -63.24   -2.89  O2



Cell 3.

Using solution 3.	 B 

----------------------------------User print-----------------------------------

Cell 3   7.0000e+00   1.2475e-03 

-----------------------------Solution composition------------------------------

	Elements           Molality       Moles

	Ca                1.248e-03   1.248e-03

----------------------------Description of solution----------------------------

                                       pH  =   7.000      Charge balance
                                       pe  =  -1.469      Adjusted to redox equilibrium
       Specific Conductance (uS/cm, 25 oC) = 135
                          Density (g/cm3)  =   0.99707
                        Activity of water  =   1.000
                           Ionic strength  =   2.495e-03
                       Mass of water (kg)  =   1.000e+00
                 Total alkalinity (eq/kg)  =   3.858e-09
                    Total carbon (mol/kg)  =   0.000e+00
                       Total CO2 (mol/kg)  =   0.000e+00
                      Temperature (deg C)  =  25.00
                  Electrical balance (eq)  =   2.495e-03
 Percent error, 100*(Cat-|An|)/(Cat+|An|)  =  99.99
                               Iterations  =  10
                                  Total H  = 1.110124e+02
                                  Total O  = 5.550622e+01

----------------------------Distribution of species----------------------------

                                            Log       Log         Log     mole V
   Species          Molality    Activity  Molality  Activity     Gamma   cm3/mol

   OH-             1.073e-07   1.015e-07    -6.969    -6.993    -0.024     -3.71
   H+              1.052e-07   1.000e-07    -6.978    -7.000    -0.022      0.00
   H2O             5.551e+01   1.000e+00     1.744    -0.000     0.000     18.07
Ca            1.248e-03
   Ca+2            1.248e-03   1.005e-03    -2.904    -2.998    -0.094    -18.22
   CaOH+           1.763e-09   1.668e-09    -8.754    -8.778    -0.024     (0)  
H(0)          1.225e-14
   H2              6.127e-15   6.130e-15   -14.213   -14.213     0.000     20.00
O(0)          0.000e+00
   O2              0.000e+00   0.000e+00   -63.955   -63.955     0.000     35.00

------------------------------Saturation indices-------------------------------

	Phase               SI   log IAP   log K(298 K,   1 atm)

	H2(g)           -11.11    -14.21   -3.10  H2
	H2O(g)           -1.50     -0.00    1.50  H2O
	O2(g)           -61.06    -63.95   -2.89  O2


Beginning of advection time step 2, cumulative pore volumes 0.666667.

Cell 1.

Using solution 1.	Infilling
Using pure phase assemblage 1.	Pure-phase assemblage after simulation 6.

----------------------------------User print-----------------------------------

Cell 1   5.6596e+00            0 

-------------------------------Phase assemblage--------------------------------

                                                      Moles in assemblage
Phase               SI  log IAP  log K(T, P)   Initial       Final       Delta

CO2(g)           -3.50    -4.97     -1.47    1.000e+01   1.000e+01  -1.296e-05
Calcite              Element not present.    0.000e+00           0   0.000e+00

-----------------------------Solution composition------------------------------

	Elements           Molality       Moles

	C                 1.296e-05   1.296e-05

----------------------------Description of solution----------------------------

                                       pH  =   5.660      Charge balance
                                       pe  =   0.190      Adjusted to redox equilibrium
       Specific Conductance (uS/cm, 25 oC) = 0
                          Density (g/cm3)  =   0.99700
                        Activity of water  =   1.000
                           Ionic strength  =   2.194e-06
                       Mass of water (kg)  =   1.000e+00
                 Total alkalinity (eq/kg)  =   1.550e-09
                       Total CO2 (mol/kg)  =   1.296e-05
                      Temperature (deg C)  =  25.00
                  Electrical balance (eq)  =  -1.550e-09
 Percent error, 100*(Cat-|An|)/(Cat+|An|)  =  -0.04
                               Iterations  =  12
                                  Total H  = 1.110124e+02
                                  Total O  = 5.550624e+01

----------------------------Distribution of species----------------------------

                                            Log       Log         Log     mole V
   Species          Molality    Activity  Molality  Activity     Gamma   cm3/mol

   H+              2.194e-06   2.190e-06    -5.659    -5.660    -0.001      0.00
   OH-             4.645e-09   4.637e-09    -8.333    -8.334    -0.001     -3.76
   H2O             5.551e+01   1.000e+00     1.744    -0.000     0.000     18.07
C(-4)         4.227e-28
   CH4             4.227e-28   4.227e-28   -27.374   -27.374     0.000     33.00
C(4)          1.296e-05
   CO2             1.077e-05   1.077e-05    -4.968    -4.968     0.000     24.85
   HCO3-           2.190e-06   2.187e-06    -5.659    -5.660    -0.001     24.86
   CO3-2           4.715e-11   4.683e-11   -10.326   -10.329    -0.003     -3.98
H(0)          2.831e-15
   H2              1.416e-15   1.416e-15   -14.849   -14.849     0.000     20.00
O(0)          0.000e+00
   O2              0.000e+00   0.000e+00   -62.682   -62.682     0.000     35.00

------------------------------Saturation indices-------------------------------

	Phase               SI   log IAP   log K(298 K,   1 atm)

	CH4(g)          -24.53    -27.37   -2.84  CH4
	CO2(g)           -3.50     -4.97   -1.47  CO2	 Pressure   0.0 atm, phi 1.000.
	H2(g)           -11.75    -14.85   -3.10  H2
	H2O(g)           -1.50     -0.00    1.50  H2O
	O2(g)           -59.79    -62.68   -2.89  O2



Cell 2.

Using solution 2.	Solution after simulation 6.

----------------------------------User print-----------------------------------

Cell 2   5.6596e+00            0 

-----------------------------Solution composition------------------------------

	Elements           Molality       Moles

	C                 1.296e-05   1.296e-05

----------------------------Description of solution----------------------------

                                       pH  =   5.660      Charge balance
                                       pe  =  -0.329      Adjusted to redox equilibrium
       Specific Conductance (uS/cm, 25 oC) = 0
                          Density (g/cm3)  =   0.99700
                        Activity of water  =   1.000
                           Ionic strength  =   2.194e-06
                       Mass of water (kg)  =   1.000e+00
                 Total alkalinity (eq/kg)  =   1.550e-09
                       Total CO2 (mol/kg)  =   1.296e-05
                      Temperature (deg C)  =  25.00
                  Electrical balance (eq)  =  -1.550e-09
 Percent error, 100*(Cat-|An|)/(Cat+|An|)  =  -0.04
                               Iterations  =   5
                                  Total H  = 1.110124e+02
                                  Total O  = 5.550624e+01

----------------------------Distribution of species----------------------------

                                            Log       Log         Log     mole V
   Species          Molality    Activity  Molality  Activity     Gamma   cm3/mol

   H+              2.194e-06   2.190e-06    -5.659    -5.660    -0.001      0.00
   OH-             4.645e-09   4.637e-09    -8.333    -8.334    -0.001     -3.76
   H2O             5.551e+01   1.000e+00     1.744    -0.000     0.000     18.07
C(-4)         6.006e-24
   CH4             6.006e-24   6.006e-24   -23.221   -23.221     0.000     33.00
C(4)          1.296e-05
   CO2             1.077e-05   1.077e-05    -4.968    -4.968     0.000     24.85
   HCO3-           2.190e-06   2.187e-06    -5.659    -5.660    -0.001     24.86
   CO3-2           4.715e-11   4.683e-11   -10.326   -10.329    -0.003     -3.98
H(0)          3.091e-14
   H2              1.545e-14   1.545e-14   -13.811   -13.811     0.000     20.00
O(0)          0.000e+00
   O2              0.000e+00   0.000e+00   -64.758   -64.758     0.000     35.00

------------------------------Saturation indices-------------------------------

	Phase               SI   log IAP   log K(298 K,   1 atm)

	CH4(g)          -20.38    -23.22   -2.84  CH4
	CO2(g)           -3.50     -4.97   -1.47  CO2	 Pressure   0.0 atm, phi 1.000.
	H2(g)           -10.71    -13.81   -3.10  H2
	H2O(g)           -1.50     -0.00    1.50  H2O
	O2(g)           -61.87    -64.76   -2.89  O2



Cell 3.

Using solution 3.	Solution after simulation 6.

----------------------------------User print-----------------------------------

Cell 3   8.0000e+00   2.4950e-03 

-----------------------------Solution composition------------------------------

	Elements           Molality       Moles

	Ca                2.495e-03   2.495e-03

----------------------------Description of solution----------------------------

                                       pH  =   8.000      Charge balance
                                       pe  =  -2.290      Adjusted to redox equilibrium
       Specific Conductance (uS/cm, 25 oC) = 262
                          Density (g/cm3)  =   0.99714
                        Activity of water  =   1.000
                           Ionic strength  =   4.991e-03
                       Mass of water (kg)  =   1.000e+00
                 Total alkalinity (eq/kg)  =   1.119e-06
                    Total carbon (mol/kg)  =   0.000e+00
                       Total CO2 (mol/kg)  =   0.000e+00
                      Temperature (deg C)  =  25.00
                  Electrical balance (eq)  =   4.989e-03
 Percent error, 100*(Cat-|An|)/(Cat+|An|)  =  99.96
                               Iterations  =   5
                                  Total H  = 1.110124e+02
                                  Total O  = 5.550622e+01

----------------------------Distribution of species----------------------------

                                            Log       Log         Log     mole V
   Species          Molality    Activity  Molality  Activity     Gamma   cm3/mol

   OH-             1.096e-06   1.015e-06    -5.960    -5.993    -0.033     -3.69
   H+              1.071e-08   1.000e-08    -7.970    -8.000    -0.030      0.00
   H2O             5.551e+01   1.000e+00     1.744    -0.000     0.000     18.07
Ca            2.495e-03
   Ca+2            2.495e-03   1.857e-03    -2.603    -2.731    -0.128    -18.16
   CaOH+           3.324e-08   3.081e-08    -7.478    -7.511    -0.033     (0)  
H(0)          5.389e-15
   H2              2.695e-15   2.698e-15   -14.570   -14.569     0.000     20.00
O(0)          0.000e+00
   O2              0.000e+00   0.000e+00   -63.242   -63.242     0.000     35.00

------------------------------Saturation indices-------------------------------

	Phase               SI   log IAP   log K(298 K,   1 atm)

	H2(g)           -11.47    -14.57   -3.10  H2
	H2O(g)           -1.50     -0.00    1.50  H2O
	O2(g)           -60.35    -63.24   -2.89  O2


Beginning of advection time step 3, cumulative pore volumes 1.000000.

Cell 1.

Using solution 1.	Infilling
Using pure phase assemblage 1.	Pure-phase assemblage after simulation 6.

----------------------------------User print-----------------------------------

Cell 1   5.6596e+00            0 

-------------------------------Phase assemblage--------------------------------

                                                      Moles in assemblage
Phase               SI  log IAP  log K(T, P)   Initial       Final       Delta

CO2(g)           -3.50    -4.97     -1.47    1.000e+01   1.000e+01  -1.296e-05
Calcite              Element not present.    0.000e+00           0   0.000e+00

-----------------------------Solution composition------------------------------

	Elements           Molality       Moles

	C                 1.296e-05   1.296e-05

----------------------------Description of solution----------------------------

                                       pH  =   5.660      Charge balance
                                       pe  =   0.190      Adjusted to redox equilibrium
       Specific Conductance (uS/cm, 25 oC) = 0
                          Density (g/cm3)  =   0.99700
                        Activity of water  =   1.000
                           Ionic strength  =   2.194e-06
                       Mass of water (kg)  =   1.000e+00
                 Total alkalinity (eq/kg)  =   1.550e-09
                       Total CO2 (mol/kg)  =   1.296e-05
                      Temperature (deg C)  =  25.00
                  Electrical balance (eq)  =  -1.550e-09
 Percent error, 100*(Cat-|An|)/(Cat+|An|)  =  -0.04
                               Iterations  =  12
                                  Total H  = 1.110124e+02
                                  Total O  = 5.550624e+01

----------------------------Distribution of species----------------------------

                                            Log       Log         Log     mole V
   Species          Molality    Activity  Molality  Activity     Gamma   cm3/mol

   H+              2.194e-06   2.190e-06    -5.659    -5.660    -0.001      0.00
   OH-             4.645e-09   4.637e-09    -8.333    -8.334    -0.001     -3.76
   H2O             5.551e+01   1.000e+00     1.744    -0.000     0.000     18.07
C(-4)         4.227e-28
   CH4             4.227e-28   4.227e-28   -27.374   -27.374     0.000     33.00
C(4)          1.296e-05
   CO2             1.077e-05   1.077e-05    -4.968    -4.968     0.000     24.85
   HCO3-           2.190e-06   2.187e-06    -5.659    -5.660    -0.001     24.86
   CO3-2           4.715e-11   4.683e-11   -10.326   -10.329    -0.003     -3.98
H(0)          2.831e-15
   H2              1.416e-15   1.416e-15   -14.849   -14.849     0.000     20.00
O(0)          0.000e+00
   O2              0.000e+00   0.000e+00   -62.682   -62.682     0.000     35.00

------------------------------Saturation indices-------------------------------

	Phase               SI   log IAP   log K(298 K,   1 atm)

	CH4(g)          -24.53    -27.37   -2.84  CH4
	CO2(g)           -3.50     -4.97   -1.47  CO2	 Pressure   0.0 atm, phi 1.000.
	H2(g)           -11.75    -14.85   -3.10  H2
	H2O(g)           -1.50     -0.00    1.50  H2O
	O2(g)           -59.79    -62.68   -2.89  O2



Cell 2.

Using solution 2.	Solution after simulation 6.

----------------------------------User print-----------------------------------

Cell 2   5.6596e+00            0 

-----------------------------Solution composition------------------------------

	Elements           Molality       Moles

	C                 1.296e-05   1.296e-05

----------------------------Description of solution----------------------------

                                       pH  =   5.660      Charge balance
                                       pe  =  -0.329      Adjusted to redox equilibrium
       Specific Conductance (uS/cm, 25 oC) = 0
                          Density (g/cm3)  =   0.99700
                        Activity of water  =   1.000
                           Ionic strength  =   2.194e-06
                       Mass of water (kg)  =   1.000e+00
                 Total alkalinity (eq/kg)  =   1.550e-09
                       Total CO2 (mol/kg)  =   1.296e-05
                      Temperature (deg C)  =  25.00
                  Electrical balance (eq)  =  -1.550e-09
 Percent error, 100*(Cat-|An|)/(Cat+|An|)  =  -0.04
                               Iterations  =   5
                                  Total H  = 1.110124e+02
                                  Total O  = 5.550624e+01

----------------------------Distribution of species----------------------------

                                            Log       Log         Log     mole V
   Species          Molality    Activity  Molality  Activity     Gamma   cm3/mol

   H+              2.194e-06   2.190e-06    -5.659    -5.660    -0.001      0.00
   OH-             4.645e-09   4.637e-09    -8.333    -8.334    -0.001     -3.76
   H2O             5.551e+01   1.000e+00     1.744    -0.000     0.000     18.07
C(-4)         6.006e-24
   CH4             6.006e-24   6.006e-24   -23.221   -23.221     0.000     33.00
C(4)          1.296e-05
   CO2             1.077e-05   1.077e-05    -4.968    -4.968     0.000     24.85
   HCO3-           2.190e-06   2.187e-06    -5.659    -5.660    -0.001     24.86
   CO3-2           4.715e-11   4.683e-11   -10.326   -10.329    -0.003     -3.98
H(0)          3.091e-14
   H2              1.545e-14   1.545e-14   -13.811   -13.811     0.000     20.00
O(0)          0.000e+00
   O2              0.000e+00   0.000e+00   -64.758   -64.758     0.000     35.00

------------------------------Saturation indices-------------------------------

	Phase               SI   log IAP   log K(298 K,   1 atm)

	CH4(g)          -20.38    -23.22   -2.84  CH4
	CO2(g)           -3.50     -4.97   -1.47  CO2	 Pressure   0.0 atm, phi 1.000.
	H2(g)           -10.71    -13.81   -3.10  H2
	H2O(g)           -1.50     -0.00    1.50  H2O
	O2(g)           -61.87    -64.76   -2.89  O2



Cell 3.

Using solution 3.	Solution after simulation 6.

----------------------------------User print-----------------------------------

Cell 3   5.6596e+00            0 

-----------------------------Solution composition------------------------------

	Elements           Molality       Moles

	C                 1.296e-05   1.296e-05

----------------------------Description of solution----------------------------

                                       pH  =   5.660      Charge balance
                                       pe  =  -0.408      Adjusted to redox equilibrium
       Specific Conductance (uS/cm, 25 oC) = 0
                          Density (g/cm3)  =   0.99700
                        Activity of water  =   1.000
                           Ionic strength  =   2.194e-06
                       Mass of water (kg)  =   1.000e+00
                 Total alkalinity (eq/kg)  =   1.550e-09
                       Total CO2 (mol/kg)  =   1.296e-05
                      Temperature (deg C)  =  25.00
                  Electrical balance (eq)  =  -1.550e-09
 Percent error, 100*(Cat-|An|)/(Cat+|An|)  =  -0.04
                               Iterations  =   5
                                  Total H  = 1.110124e+02
                                  Total O  = 5.550624e+01

----------------------------Distribution of species----------------------------

                                            Log       Log         Log     mole V
   Species          Molality    Activity  Molality  Activity     Gamma   cm3/mol

   H+              2.194e-06   2.190e-06    -5.659    -5.660    -0.001      0.00
   OH-             4.645e-09   4.637e-09    -8.333    -8.334    -0.001     -3.76
   H2O             5.551e+01   1.000e+00     1.744    -0.000     0.000     18.07
C(-4)         2.578e-23
   CH4             2.578e-23   2.578e-23   -22.589   -22.589     0.000     33.00
C(4)          1.296e-05
   CO2             1.077e-05   1.077e-05    -4.968    -4.968     0.000     24.85
   HCO3-           2.190e-06   2.187e-06    -5.659    -5.660    -0.001     24.86
   CO3-2           4.715e-11   4.683e-11   -10.326   -10.329    -0.003     -3.98
H(0)          4.449e-14
   H2              2.224e-14   2.224e-14   -13.653   -13.653     0.000     20.00
O(0)          0.000e+00
   O2              0.000e+00   0.000e+00   -65.074   -65.074     0.000     35.00

------------------------------Saturation indices-------------------------------

	Phase               SI   log IAP   log K(298 K,   1 atm)

	CH4(g)          -19.75    -22.59   -2.84  CH4
	CO2(g)           -3.50     -4.97   -1.47  CO2	 Pressure   0.0 atm, phi 1.000.
	H2(g)           -10.55    -13.65   -3.10  H2
	H2O(g)           -1.50     -0.00    1.50  H2O
	O2(g)           -62.18    -65.07   -2.89  O2


------------------
End of simulation.
------------------

------------------------------------
Reading input data for simulation 7.
------------------------------------

	MIX 2
	    1 .5
	    2 .5
	END
-----------------------------------------
Beginning of batch-reaction calculations.
-----------------------------------------

Reaction step 1.

Using mix 2.	

Mixture 2.	

	  5.000e-01 Solution 1	Solution after simulation 6.                           
	  5.000e-01 Solution 2	Solution after simulation 6.                           

----------------------------------User print-----------------------------------

Mix 2   5.6596e+00            0 

-----------------------------Solution composition------------------------------

	Elements           Molality       Moles

	C                 1.296e-05   1.296e-05

----------------------------Description of solution----------------------------

                                       pH  =   5.660      Charge balance
                                       pe  =  -0.410      Adjusted to redox equilibrium
       Specific Conductance (uS/cm, 25 oC) = 0
                          Density (g/cm3)  =   0.99700
                        Activity of water  =   1.000
                           Ionic strength  =   2.194e-06
                       Mass of water (kg)  =   1.000e+00
                 Total alkalinity (eq/kg)  =   1.550e-09
                       Total CO2 (mol/kg)  =   1.296e-05
                      Temperature (deg C)  =  25.00
                  Electrical balance (eq)  =  -1.550e-09
 Percent error, 100*(Cat-|An|)/(Cat+|An|)  =  -0.04
                               Iterations  =   5
                                  Total H  = 1.110124e+02
                                  Total O  = 5.550624e+01

----------------------------Distribution of species----------------------------

                                            Log       Log         Log     mole V
   Species          Molality    Activity  Molality  Activity     Gamma   cm3/mol

   H+              2.194e-06   2.190e-06    -5.659    -5.660    -0.001      0.00
   OH-             4.645e-09   4.637e-09    -8.333    -8.334    -0.001     -3.76
   H2O             5.551e+01   1.000e+00     1.744    -0.000     0.000     18.07
C(-4)         2.666e-23
   CH4             2.666e-23   2.666e-23   -22.574   -22.574     0.000     33.00
C(4)          1.296e-05
   CO2             1.077e-05   1.077e-05    -4.968    -4.968     0.000     24.85
   HCO3-           2.190e-06   2.187e-06    -5.659    -5.660    -0.001     24.86
   CO3-2           4.715e-11   4.683e-11   -10.326   -10.329    -0.003     -3.98
H(0)          4.487e-14
   H2              2.243e-14   2.243e-14   -13.649   -13.649     0.000     20.00
O(0)          0.000e+00
   O2              0.000e+00   0.000e+00   -65.082   -65.082     0.000     35.00

------------------------------Saturation indices-------------------------------

	Phase               SI   log IAP   log K(298 K,   1 atm)

	CH4(g)          -19.73    -22.57   -2.84  CH4
	CO2(g)           -3.50     -4.97   -1.47  CO2
	H2(g)           -10.55    -13.65   -3.10  H2
	H2O(g)           -1.50     -0.00    1.50  H2O
	O2(g)           -62.19    -65.08   -2.89  O2


------------------
End of simulation.
------------------

------------------------------------
Reading input data for simulation 8.
------------------------------------

-----------
End of run.
-----------

