WARNING: Database file from DATABASE keyword is used; command line argument ignored.
   Input file: dissolve_only
  Output file: dissolve_only.out
Database file: ../database/phreeqc.dat

------------------
Reading data base.
------------------

	SOLUTION_MASTER_SPECIES
	SOLUTION_SPECIES
	PHASES
	EXCHANGE_MASTER_SPECIES
	EXCHANGE_SPECIES
	SURFACE_MASTER_SPECIES
	SURFACE_SPECIES
	RATES
	END
------------------------------------
Reading input data for simulation 1.
------------------------------------

	DATABASE ../database/phreeqc.dat
	SELECTED_OUTPUT 101
	    file                 dissolve_only_101.sel
	USER_PUNCH 101
	    headings Mu SC
	    start
	10 PUNCH STR_F$(MU, 20, 12)
	20 PUNCH STR_F$(SC, 20, 10)
	    end
	SOLUTION 1
	EQUILIBRIUM_PHASES 1
		Dolomite	0.0	0.00001 dissolve_only
	END
-------------------------------------------
Beginning of initial solution calculations.
-------------------------------------------

Initial solution 1.	

-----------------------------Solution composition------------------------------

	Elements           Molality       Moles

	Pure water     

----------------------------Description of solution----------------------------

                                       pH  =   7.000    
                                       pe  =   4.000    
      Specific Conductance (µS/cm,  25°C)  = 0
                          Density (g/cm³)  =   0.99704
                               Volume (L)  =   1.00297
                        Activity of water  =   1.000
                 Ionic strength (mol/kgw)  =   1.007e-07
                       Mass of water (kg)  =   1.000e+00
                 Total alkalinity (eq/kg)  =   1.217e-09
                         Temperature (°C)  =  25.00
                  Electrical balance (eq)  =  -1.217e-09
 Percent error, 100*(Cat-|An|)/(Cat+|An|)  =  -0.60
                               Iterations  =   0
                                  Total H  = 1.110124e+02
                                  Total O  = 5.550622e+01

----------------------------Distribution of species----------------------------

                                               Log       Log       Log    mole V
   Species          Molality    Activity  Molality  Activity     Gamma   cm³/mol

   OH-             1.013e-07   1.012e-07    -6.995    -6.995    -0.000     -4.14
   H+              1.001e-07   1.000e-07    -7.000    -7.000    -0.000      0.00
   H2O             5.551e+01   1.000e+00     1.744     0.000     0.000     18.07
H(0)          1.416e-25
   H2              7.079e-26   7.079e-26   -25.150   -25.150     0.000     28.61
O(0)          0.000e+00
   O2              0.000e+00   0.000e+00   -42.080   -42.080     0.000     30.40

------------------------------Saturation indices-------------------------------

  Phase               SI** log IAP   log K(298 K,   1 atm)

  H2(g)           -22.05    -25.15   -3.10  H2
  H2O(g)           -1.50      0.00    1.50  H2O
  O2(g)           -39.19    -42.08   -2.89  O2

**For a gas, SI = log10(fugacity). Fugacity = pressure * phi / 1 atm.
  For ideal gases, phi = 1.

-----------------------------------------
Beginning of batch-reaction calculations.
-----------------------------------------

Reaction step 1.

Using solution 1.	
Using pure phase assemblage 1.	

-------------------------------Phase assemblage--------------------------------

                                                      Moles in assemblage
Phase               SI  log IAP  log K(T, P)   Initial       Final       Delta

Dolomite         -4.58   -21.67    -17.08    1.000e-05           0  -1.000e-05

-----------------------------Solution composition------------------------------

	Elements           Molality       Moles

	C                 2.000e-05   2.000e-05
	Ca                1.000e-05   1.000e-05
	Mg                1.000e-05   1.000e-05

----------------------------Description of solution----------------------------

                                       pH  =   9.254      Charge balance
                                       pe  =  -3.269      Adjusted to redox equilibrium
      Specific Conductance (µS/cm,  25°C)  = 6
                          Density (g/cm³)  =   0.99705
                               Volume (L)  =   1.00297
                        Activity of water  =   1.000
                 Ionic strength (mol/kgw)  =   6.133e-05
                       Mass of water (kg)  =   1.000e+00
                 Total alkalinity (eq/kg)  =   4.000e-05
                       Total CO2 (mol/kg)  =   2.000e-05
                         Temperature (°C)  =  25.00
                  Electrical balance (eq)  =  -1.217e-09
 Percent error, 100*(Cat-|An|)/(Cat+|An|)  =  -0.00
                               Iterations  =  16
                                  Total H  = 1.110124e+02
                                  Total O  = 5.550628e+01

----------------------------Distribution of species----------------------------

                                               Log       Log       Log    mole V
   Species          Molality    Activity  Molality  Activity     Gamma   cm³/mol

   OH-             1.833e-05   1.817e-05    -4.737    -4.741    -0.004     -4.13
   H+              5.622e-10   5.571e-10    -9.250    -9.254    -0.004      0.00
   H2O             5.551e+01   1.000e+00     1.744    -0.000     0.000     18.07
C(-4)         7.391e-32
   CH4             7.391e-32   7.391e-32   -31.131   -31.131     0.000     35.46
C(4)          2.000e-05
   HCO3-           1.835e-05   1.818e-05    -4.736    -4.740    -0.004     24.66
   CO3-2           1.587e-06   1.530e-06    -5.799    -5.815    -0.016     -5.36
   CaCO3           2.472e-08   2.472e-08    -7.607    -7.607     0.000    -14.60
   CO2             2.278e-08   2.278e-08    -7.643    -7.643     0.000     34.43
   MgCO3           1.397e-08   1.397e-08    -7.855    -7.855     0.000    -17.09
   CaHCO3+         2.251e-09   2.230e-09    -8.648    -8.652    -0.004      9.65
   MgHCO3+         2.054e-09   2.035e-09    -8.687    -8.691    -0.004      5.46
   (CO2)2          9.521e-18   9.521e-18   -17.021   -17.021     0.000     68.87
Ca            1.000e-05
   Ca+2            9.970e-06   9.615e-06    -5.001    -5.017    -0.016    -18.23
   CaCO3           2.472e-08   2.472e-08    -7.607    -7.607     0.000    -14.60
   CaOH+           2.890e-09   2.864e-09    -8.539    -8.543    -0.004     (0)  
   CaHCO3+         2.251e-09   2.230e-09    -8.648    -8.652    -0.004      9.65
H(0)          1.518e-15
   H2              7.590e-16   7.590e-16   -15.120   -15.120     0.000     28.61
Mg            1.000e-05
   Mg+2            9.921e-06   9.568e-06    -5.003    -5.019    -0.016    -21.91
   MgOH+           6.292e-08   6.235e-08    -7.201    -7.205    -0.004     (0)  
   MgCO3           1.397e-08   1.397e-08    -7.855    -7.855     0.000    -17.09
   MgHCO3+         2.054e-09   2.035e-09    -8.687    -8.691    -0.004      5.46
O(0)          0.000e+00
   O2              0.000e+00   0.000e+00   -62.140   -62.140     0.000     30.40

------------------------------Saturation indices-------------------------------

  Phase               SI** log IAP   log K(298 K,   1 atm)

  Aragonite        -2.50    -10.83   -8.34  CaCO3
  Calcite          -2.35    -10.83   -8.48  CaCO3
  CH4(g)          -28.33    -31.13   -2.80  CH4
  CO2(g)           -6.17     -7.64   -1.47  CO2
  Dolomite         -4.58    -21.67  -17.08  CaMg(CO3)2
  H2(g)           -12.02    -15.12   -3.10  H2
  H2O(g)           -1.50     -0.00    1.50  H2O
  O2(g)           -59.25    -62.14   -2.89  O2

**For a gas, SI = log10(fugacity). Fugacity = pressure * phi / 1 atm.
  For ideal gases, phi = 1.

------------------
End of simulation.
------------------

------------------------------------
Reading input data for simulation 2.
------------------------------------

	SOLUTION 1
	EQUILIBRIUM_PHASES 1
		Dolomite	0.0	0.1 dissolve_only
	END
-------------------------------------------
Beginning of initial solution calculations.
-------------------------------------------

Initial solution 1.	

-----------------------------Solution composition------------------------------

	Elements           Molality       Moles

	Pure water     

----------------------------Description of solution----------------------------

                                       pH  =   7.000    
                                       pe  =   4.000    
      Specific Conductance (µS/cm,  25°C)  = 0
                          Density (g/cm³)  =   0.99704
                               Volume (L)  =   1.00297
                        Activity of water  =   1.000
                 Ionic strength (mol/kgw)  =   1.007e-07
                       Mass of water (kg)  =   1.000e+00
                 Total alkalinity (eq/kg)  =   1.217e-09
                         Temperature (°C)  =  25.00
                  Electrical balance (eq)  =  -1.217e-09
 Percent error, 100*(Cat-|An|)/(Cat+|An|)  =  -0.60
                               Iterations  =   0
                                  Total H  = 1.110124e+02
                                  Total O  = 5.550622e+01

----------------------------Distribution of species----------------------------

                                               Log       Log       Log    mole V
   Species          Molality    Activity  Molality  Activity     Gamma   cm³/mol

   OH-             1.013e-07   1.012e-07    -6.995    -6.995    -0.000     -4.14
   H+              1.001e-07   1.000e-07    -7.000    -7.000    -0.000      0.00
   H2O             5.551e+01   1.000e+00     1.744     0.000     0.000     18.07
H(0)          1.416e-25
   H2              7.079e-26   7.079e-26   -25.150   -25.150     0.000     28.61
O(0)          0.000e+00
   O2              0.000e+00   0.000e+00   -42.080   -42.080     0.000     30.40

------------------------------Saturation indices-------------------------------

  Phase               SI** log IAP   log K(298 K,   1 atm)

  H2(g)           -22.05    -25.15   -3.10  H2
  H2O(g)           -1.50      0.00    1.50  H2O
  O2(g)           -39.19    -42.08   -2.89  O2

**For a gas, SI = log10(fugacity). Fugacity = pressure * phi / 1 atm.
  For ideal gases, phi = 1.

-----------------------------------------
Beginning of batch-reaction calculations.
-----------------------------------------

Reaction step 1.

Using solution 1.	
Using pure phase assemblage 1.	

-------------------------------Phase assemblage--------------------------------

                                                      Moles in assemblage
Phase               SI  log IAP  log K(T, P)   Initial       Final       Delta

Dolomite          0.00   -17.08    -17.08    1.000e-01   9.992e-02  -7.809e-05

-----------------------------Solution composition------------------------------

	Elements           Molality       Moles

	C                 1.562e-04   1.562e-04
	Ca                7.809e-05   7.809e-05
	Mg                7.809e-05   7.809e-05

----------------------------Description of solution----------------------------

                                       pH  =   9.976      Charge balance
                                       pe  =  -3.991      Adjusted to redox equilibrium
      Specific Conductance (µS/cm,  25°C)  = 45
                          Density (g/cm³)  =   0.99706
                               Volume (L)  =   1.00296
                        Activity of water  =   1.000
                 Ionic strength (mol/kgw)  =   4.887e-04
                       Mass of water (kg)  =   1.000e+00
                 Total alkalinity (eq/kg)  =   3.124e-04
                       Total CO2 (mol/kg)  =   1.562e-04
                         Temperature (°C)  =  25.00
                  Electrical balance (eq)  =  -1.217e-09
 Percent error, 100*(Cat-|An|)/(Cat+|An|)  =  -0.00
                               Iterations  =  16
                                  Total H  = 1.110124e+02
                                  Total O  = 5.550669e+01

----------------------------Distribution of species----------------------------

                                               Log       Log       Log    mole V
   Species          Molality    Activity  Molality  Activity     Gamma   cm³/mol

   OH-             9.820e-05   9.574e-05    -4.008    -4.019    -0.011     -4.12
   H+              1.083e-10   1.057e-10    -9.965    -9.976    -0.011      0.00
   H2O             5.551e+01   1.000e+00     1.744    -0.000     0.000     18.07
C(-4)         7.563e-32
   CH4             7.563e-32   7.564e-32   -31.121   -31.121     0.000     35.46
C(4)          1.562e-04
   HCO3-           1.004e-04   9.794e-05    -3.998    -4.009    -0.011     24.67
   CO3-2           4.801e-05   4.345e-05    -4.319    -4.362    -0.043     -5.31
   CaCO3           4.825e-06   4.826e-06    -5.316    -5.316     0.000    -14.60
   MgCO3           2.737e-06   2.738e-06    -5.563    -5.563     0.000    -17.09
   CaHCO3+         8.470e-08   8.262e-08    -7.072    -7.083    -0.011      9.66
   MgHCO3+         7.760e-08   7.567e-08    -7.110    -7.121    -0.011      5.47
   CO2             2.328e-08   2.328e-08    -7.633    -7.633     0.000     34.43
   (CO2)2          9.946e-18   9.947e-18   -17.002   -17.002     0.000     68.87
Ca            7.809e-05
   Ca+2            7.307e-05   6.612e-05    -4.136    -4.180    -0.043    -18.17
   CaCO3           4.825e-06   4.826e-06    -5.316    -5.316     0.000    -14.60
   CaOH+           1.064e-07   1.038e-07    -6.973    -6.984    -0.011     (0)  
   CaHCO3+         8.470e-08   8.262e-08    -7.072    -7.083    -0.011      9.66
H(0)          1.518e-15
   H2              7.591e-16   7.592e-16   -15.120   -15.120     0.000     28.61
Mg            7.809e-05
   Mg+2            7.295e-05   6.603e-05    -4.137    -4.180    -0.043    -21.86
   MgCO3           2.737e-06   2.738e-06    -5.563    -5.563     0.000    -17.09
   MgOH+           2.325e-06   2.268e-06    -5.634    -5.644    -0.011     (0)  
   MgHCO3+         7.760e-08   7.567e-08    -7.110    -7.121    -0.011      5.47
O(0)          0.000e+00
   O2              0.000e+00   0.000e+00   -62.141   -62.141     0.000     30.40

------------------------------Saturation indices-------------------------------

  Phase               SI** log IAP   log K(298 K,   1 atm)

  Aragonite        -0.21     -8.54   -8.34  CaCO3
  Calcite          -0.06     -8.54   -8.48  CaCO3
  CH4(g)          -28.32    -31.12   -2.80  CH4
  CO2(g)           -6.16     -7.63   -1.47  CO2
  Dolomite          0.00    -17.08  -17.08  CaMg(CO3)2
  H2(g)           -12.02    -15.12   -3.10  H2
  H2O(g)           -1.50     -0.00    1.50  H2O
  O2(g)           -59.25    -62.14   -2.89  O2

**For a gas, SI = log10(fugacity). Fugacity = pressure * phi / 1 atm.
  For ideal gases, phi = 1.

------------------
End of simulation.
------------------

------------------------------------
Reading input data for simulation 3.
------------------------------------

	SOLUTION 1
	EQUILIBRIUM_PHASES 1
		Dolomite	1.0	0.1 dissolve_only
	SAVE solution 2
	END
-------------------------------------------
Beginning of initial solution calculations.
-------------------------------------------

Initial solution 1.	

-----------------------------Solution composition------------------------------

	Elements           Molality       Moles

	Pure water     

----------------------------Description of solution----------------------------

                                       pH  =   7.000    
                                       pe  =   4.000    
      Specific Conductance (µS/cm,  25°C)  = 0
                          Density (g/cm³)  =   0.99704
                               Volume (L)  =   1.00297
                        Activity of water  =   1.000
                 Ionic strength (mol/kgw)  =   1.007e-07
                       Mass of water (kg)  =   1.000e+00
                 Total alkalinity (eq/kg)  =   1.217e-09
                         Temperature (°C)  =  25.00
                  Electrical balance (eq)  =  -1.217e-09
 Percent error, 100*(Cat-|An|)/(Cat+|An|)  =  -0.60
                               Iterations  =   0
                                  Total H  = 1.110124e+02
                                  Total O  = 5.550622e+01

----------------------------Distribution of species----------------------------

                                               Log       Log       Log    mole V
   Species          Molality    Activity  Molality  Activity     Gamma   cm³/mol

   OH-             1.013e-07   1.012e-07    -6.995    -6.995    -0.000     -4.14
   H+              1.001e-07   1.000e-07    -7.000    -7.000    -0.000      0.00
   H2O             5.551e+01   1.000e+00     1.744     0.000     0.000     18.07
H(0)          1.416e-25
   H2              7.079e-26   7.079e-26   -25.150   -25.150     0.000     28.61
O(0)          0.000e+00
   O2              0.000e+00   0.000e+00   -42.080   -42.080     0.000     30.40

------------------------------Saturation indices-------------------------------

  Phase               SI** log IAP   log K(298 K,   1 atm)

  H2(g)           -22.05    -25.15   -3.10  H2
  H2O(g)           -1.50      0.00    1.50  H2O
  O2(g)           -39.19    -42.08   -2.89  O2

**For a gas, SI = log10(fugacity). Fugacity = pressure * phi / 1 atm.
  For ideal gases, phi = 1.

-----------------------------------------
Beginning of batch-reaction calculations.
-----------------------------------------

Reaction step 1.

Using solution 1.	
Using pure phase assemblage 1.	

-------------------------------Phase assemblage--------------------------------

                                                      Moles in assemblage
Phase               SI  log IAP  log K(T, P)   Initial       Final       Delta

Dolomite          1.00   -16.08    -17.08    1.000e-01   9.987e-02  -1.335e-04

-----------------------------Solution composition------------------------------

	Elements           Molality       Moles

	C                 2.670e-04   2.670e-04
	Ca                1.335e-04   1.335e-04
	Mg                1.335e-04   1.335e-04

----------------------------Description of solution----------------------------

                                       pH  =  10.123      Charge balance
                                       pe  =  -4.139      Adjusted to redox equilibrium
      Specific Conductance (µS/cm,  25°C)  = 72
                          Density (g/cm³)  =   0.99707
                               Volume (L)  =   1.00296
                        Activity of water  =   1.000
                 Ionic strength (mol/kgw)  =   8.165e-04
                       Mass of water (kg)  =   1.000e+00
                 Total alkalinity (eq/kg)  =   5.340e-04
                       Total CO2 (mol/kg)  =   2.670e-04
                         Temperature (°C)  =  25.00
                  Electrical balance (eq)  =  -1.217e-09
 Percent error, 100*(Cat-|An|)/(Cat+|An|)  =  -0.00
                               Iterations  =  17
                                  Total H  = 1.110124e+02
                                  Total O  = 5.550702e+01

----------------------------Distribution of species----------------------------

                                               Log       Log       Log    mole V
   Species          Molality    Activity  Molality  Activity     Gamma   cm³/mol

   OH-             1.389e-04   1.345e-04    -3.857    -3.871    -0.014     -4.11
   H+              7.762e-11   7.525e-11   -10.110   -10.123    -0.013      0.00
   H2O             5.551e+01   1.000e+00     1.744    -0.000     0.000     18.07
C(-4)         7.668e-32
   CH4             7.668e-32   7.670e-32   -31.115   -31.115     0.000     35.46
C(4)          2.670e-04
   HCO3-           1.440e-04   1.395e-04    -3.842    -3.856    -0.014     24.68
   CO3-2           9.876e-05   8.692e-05    -4.005    -4.061    -0.055     -5.28
   CaCO3           1.515e-05   1.515e-05    -4.820    -4.820     0.000    -14.60
   MgCO3           8.717e-06   8.718e-06    -5.060    -5.060     0.000    -17.09
   CaHCO3+         1.906e-07   1.847e-07    -6.720    -6.734    -0.014      9.67
   MgHCO3+         1.772e-07   1.715e-07    -6.752    -6.766    -0.014      5.47
   CO2             2.359e-08   2.360e-08    -7.627    -7.627     0.000     34.43
   (CO2)2          1.022e-17   1.022e-17   -16.991   -16.990     0.000     68.87
Ca            1.335e-04
   Ca+2            1.179e-04   1.038e-04    -3.928    -3.984    -0.056    -18.15
   CaCO3           1.515e-05   1.515e-05    -4.820    -4.820     0.000    -14.60
   CaOH+           2.364e-07   2.289e-07    -6.626    -6.640    -0.014     (0)  
   CaHCO3+         1.906e-07   1.847e-07    -6.720    -6.734    -0.014      9.67
H(0)          1.518e-15
   H2              7.591e-16   7.593e-16   -15.120   -15.120     0.000     28.61
Mg            1.335e-04
   Mg+2            1.194e-04   1.051e-04    -3.923    -3.978    -0.055    -21.83
   MgCO3           8.717e-06   8.718e-06    -5.060    -5.060     0.000    -17.09
   MgOH+           5.235e-06   5.072e-06    -5.281    -5.295    -0.014     (0)  
   MgHCO3+         1.772e-07   1.715e-07    -6.752    -6.766    -0.014      5.47
O(0)          0.000e+00
   O2              0.000e+00   0.000e+00   -62.141   -62.141     0.000     30.40

------------------------------Saturation indices-------------------------------

  Phase               SI** log IAP   log K(298 K,   1 atm)

  Aragonite         0.29     -8.04   -8.34  CaCO3
  Calcite           0.44     -8.04   -8.48  CaCO3
  CH4(g)          -28.31    -31.12   -2.80  CH4
  CO2(g)           -6.16     -7.63   -1.47  CO2
  Dolomite          1.00    -16.08  -17.08  CaMg(CO3)2
  H2(g)           -12.02    -15.12   -3.10  H2
  H2O(g)           -1.50     -0.00    1.50  H2O
  O2(g)           -59.25    -62.14   -2.89  O2

**For a gas, SI = log10(fugacity). Fugacity = pressure * phi / 1 atm.
  For ideal gases, phi = 1.

------------------
End of simulation.
------------------

------------------------------------
Reading input data for simulation 4.
------------------------------------

	SOLUTION 1
	EQUILIBRIUM_PHASES 1
		Dolomite	-1.0	0.1 dissolve_only
	SAVE solution 3
	END
-------------------------------------------
Beginning of initial solution calculations.
-------------------------------------------

Initial solution 1.	

-----------------------------Solution composition------------------------------

	Elements           Molality       Moles

	Pure water     

----------------------------Description of solution----------------------------

                                       pH  =   7.000    
                                       pe  =   4.000    
      Specific Conductance (µS/cm,  25°C)  = 0
                          Density (g/cm³)  =   0.99704
                               Volume (L)  =   1.00297
                        Activity of water  =   1.000
                 Ionic strength (mol/kgw)  =   1.007e-07
                       Mass of water (kg)  =   1.000e+00
                 Total alkalinity (eq/kg)  =   1.217e-09
                         Temperature (°C)  =  25.00
                  Electrical balance (eq)  =  -1.217e-09
 Percent error, 100*(Cat-|An|)/(Cat+|An|)  =  -0.60
                               Iterations  =   0
                                  Total H  = 1.110124e+02
                                  Total O  = 5.550622e+01

----------------------------Distribution of species----------------------------

                                               Log       Log       Log    mole V
   Species          Molality    Activity  Molality  Activity     Gamma   cm³/mol

   OH-             1.013e-07   1.012e-07    -6.995    -6.995    -0.000     -4.14
   H+              1.001e-07   1.000e-07    -7.000    -7.000    -0.000      0.00
   H2O             5.551e+01   1.000e+00     1.744     0.000     0.000     18.07
H(0)          1.416e-25
   H2              7.079e-26   7.079e-26   -25.150   -25.150     0.000     28.61
O(0)          0.000e+00
   O2              0.000e+00   0.000e+00   -42.080   -42.080     0.000     30.40

------------------------------Saturation indices-------------------------------

  Phase               SI** log IAP   log K(298 K,   1 atm)

  H2(g)           -22.05    -25.15   -3.10  H2
  H2O(g)           -1.50      0.00    1.50  H2O
  O2(g)           -39.19    -42.08   -2.89  O2

**For a gas, SI = log10(fugacity). Fugacity = pressure * phi / 1 atm.
  For ideal gases, phi = 1.

-----------------------------------------
Beginning of batch-reaction calculations.
-----------------------------------------

Reaction step 1.

Using solution 1.	
Using pure phase assemblage 1.	

-------------------------------Phase assemblage--------------------------------

                                                      Moles in assemblage
Phase               SI  log IAP  log K(T, P)   Initial       Final       Delta

Dolomite         -1.00   -18.08    -17.08    1.000e-01   9.995e-02  -4.771e-05

-----------------------------Solution composition------------------------------

	Elements           Molality       Moles

	C                 9.542e-05   9.542e-05
	Ca                4.771e-05   4.771e-05
	Mg                4.771e-05   4.771e-05

----------------------------Description of solution----------------------------

                                       pH  =   9.824      Charge balance
                                       pe  =  -3.839      Adjusted to redox equilibrium
      Specific Conductance (µS/cm,  25°C)  = 29
                          Density (g/cm³)  =   0.99705
                               Volume (L)  =   1.00296
                        Activity of water  =   1.000
                 Ionic strength (mol/kgw)  =   2.999e-04
                       Mass of water (kg)  =   1.000e+00
                 Total alkalinity (eq/kg)  =   1.908e-04
                       Total CO2 (mol/kg)  =   9.542e-05
                         Temperature (°C)  =  25.00
                  Electrical balance (eq)  =  -1.217e-09
 Percent error, 100*(Cat-|An|)/(Cat+|An|)  =  -0.00
                               Iterations  =  16
                                  Total H  = 1.110124e+02
                                  Total O  = 5.550650e+01

----------------------------Distribution of species----------------------------

                                               Log       Log       Log    mole V
   Species          Molality    Activity  Molality  Activity     Gamma   cm³/mol

   OH-             6.882e-05   6.746e-05    -4.162    -4.171    -0.009     -4.12
   H+              1.530e-10   1.500e-10    -9.815    -9.824    -0.008      0.00
   H2O             5.551e+01   1.000e+00     1.744    -0.000     0.000     18.07
C(-4)         7.492e-32
   CH4             7.492e-32   7.492e-32   -31.125   -31.125     0.000     35.46
C(4)          9.542e-05
   HCO3-           6.979e-05   6.842e-05    -4.156    -4.165    -0.009     24.67
   CO3-2           2.314e-05   2.139e-05    -4.636    -4.670    -0.034     -5.33
   CaCO3           1.530e-06   1.530e-06    -5.815    -5.815     0.000    -14.60
   MgCO3           8.632e-07   8.633e-07    -6.064    -6.064     0.000    -17.09
   CaHCO3+         3.792e-08   3.718e-08    -7.421    -7.430    -0.009      9.66
   MgHCO3+         3.455e-08   3.387e-08    -7.462    -7.470    -0.009      5.46
   CO2             2.308e-08   2.308e-08    -7.637    -7.637     0.000     34.43
   (CO2)2          9.780e-18   9.780e-18   -17.010   -17.010     0.000     68.87
Ca            4.771e-05
   Ca+2            4.609e-05   4.259e-05    -4.336    -4.371    -0.034    -18.19
   CaCO3           1.530e-06   1.530e-06    -5.815    -5.815     0.000    -14.60
   CaOH+           4.806e-08   4.711e-08    -7.318    -7.327    -0.009     (0)  
   CaHCO3+         3.792e-08   3.718e-08    -7.421    -7.430    -0.009      9.66
H(0)          1.518e-15
   H2              7.590e-16   7.590e-16   -15.120   -15.120     0.000     28.61
Mg            4.771e-05
   Mg+2            4.577e-05   4.230e-05    -4.339    -4.374    -0.034    -21.87
   MgOH+           1.044e-06   1.024e-06    -5.981    -5.990    -0.009     (0)  
   MgCO3           8.632e-07   8.633e-07    -6.064    -6.064     0.000    -17.09
   MgHCO3+         3.455e-08   3.387e-08    -7.462    -7.470    -0.009      5.46
O(0)          0.000e+00
   O2              0.000e+00   0.000e+00   -62.141   -62.141     0.000     30.40

------------------------------Saturation indices-------------------------------

  Phase               SI** log IAP   log K(298 K,   1 atm)

  Aragonite        -0.70     -9.04   -8.34  CaCO3
  Calcite          -0.56     -9.04   -8.48  CaCO3
  CH4(g)          -28.32    -31.13   -2.80  CH4
  CO2(g)           -6.17     -7.64   -1.47  CO2
  Dolomite         -1.00    -18.08  -17.08  CaMg(CO3)2
  H2(g)           -12.02    -15.12   -3.10  H2
  H2O(g)           -1.50     -0.00    1.50  H2O
  O2(g)           -59.25    -62.14   -2.89  O2

**For a gas, SI = log10(fugacity). Fugacity = pressure * phi / 1 atm.
  For ideal gases, phi = 1.

------------------
End of simulation.
------------------

------------------------------------
Reading input data for simulation 5.
------------------------------------

	USE solution 2
	EQUILIBRIUM_PHASES 1
		Dolomite	0.0	0.1 dissolve_only
	END
-----------------------------------------
Beginning of batch-reaction calculations.
-----------------------------------------

Reaction step 1.

Using solution 2.	Solution after simulation 3.
Using pure phase assemblage 1.	

-------------------------------Phase assemblage--------------------------------

                                                      Moles in assemblage
Phase               SI  log IAP  log K(T, P)   Initial       Final       Delta

Dolomite          1.00   -16.08    -17.08    1.000e-01   1.000e-01   0.000e+00

-----------------------------Solution composition------------------------------

	Elements           Molality       Moles

	C                 2.670e-04   2.670e-04
	Ca                1.335e-04   1.335e-04
	Mg                1.335e-04   1.335e-04

----------------------------Description of solution----------------------------

                                       pH  =  10.123      Charge balance
                                       pe  =  -4.139      Adjusted to redox equilibrium
      Specific Conductance (µS/cm,  25°C)  = 72
                          Density (g/cm³)  =   0.99707
                               Volume (L)  =   1.00296
                        Activity of water  =   1.000
                 Ionic strength (mol/kgw)  =   8.165e-04
                       Mass of water (kg)  =   1.000e+00
                 Total alkalinity (eq/kg)  =   5.340e-04
                       Total CO2 (mol/kg)  =   2.670e-04
                         Temperature (°C)  =  25.00
                  Electrical balance (eq)  =  -1.217e-09
 Percent error, 100*(Cat-|An|)/(Cat+|An|)  =  -0.00
                               Iterations  =   0
                                  Total H  = 1.110124e+02
                                  Total O  = 5.550702e+01

----------------------------Distribution of species----------------------------

                                               Log       Log       Log    mole V
   Species          Molality    Activity  Molality  Activity     Gamma   cm³/mol

   OH-             1.389e-04   1.345e-04    -3.857    -3.871    -0.014     -4.11
   H+              7.762e-11   7.525e-11   -10.110   -10.123    -0.013      0.00
   H2O             5.551e+01   1.000e+00     1.744    -0.000     0.000     18.07
C(-4)         7.668e-32
   CH4             7.668e-32   7.670e-32   -31.115   -31.115     0.000     35.46
C(4)          2.670e-04
   HCO3-           1.440e-04   1.395e-04    -3.842    -3.856    -0.014     24.68
   CO3-2           9.876e-05   8.692e-05    -4.005    -4.061    -0.055     -5.28
   CaCO3           1.515e-05   1.515e-05    -4.820    -4.820     0.000    -14.60
   MgCO3           8.717e-06   8.718e-06    -5.060    -5.060     0.000    -17.09
   CaHCO3+         1.906e-07   1.847e-07    -6.720    -6.734    -0.014      9.67
   MgHCO3+         1.772e-07   1.715e-07    -6.752    -6.766    -0.014      5.47
   CO2             2.359e-08   2.360e-08    -7.627    -7.627     0.000     34.43
   (CO2)2          1.022e-17   1.022e-17   -16.991   -16.990     0.000     68.87
Ca            1.335e-04
   Ca+2            1.179e-04   1.038e-04    -3.928    -3.984    -0.056    -18.15
   CaCO3           1.515e-05   1.515e-05    -4.820    -4.820     0.000    -14.60
   CaOH+           2.364e-07   2.289e-07    -6.626    -6.640    -0.014     (0)  
   CaHCO3+         1.906e-07   1.847e-07    -6.720    -6.734    -0.014      9.67
H(0)          1.518e-15
   H2              7.591e-16   7.593e-16   -15.120   -15.120     0.000     28.61
Mg            1.335e-04
   Mg+2            1.194e-04   1.051e-04    -3.923    -3.978    -0.055    -21.83
   MgCO3           8.717e-06   8.718e-06    -5.060    -5.060     0.000    -17.09
   MgOH+           5.235e-06   5.072e-06    -5.281    -5.295    -0.014     (0)  
   MgHCO3+         1.772e-07   1.715e-07    -6.752    -6.766    -0.014      5.47
O(0)          0.000e+00
   O2              0.000e+00   0.000e+00   -62.141   -62.141     0.000     30.40

------------------------------Saturation indices-------------------------------

  Phase               SI** log IAP   log K(298 K,   1 atm)

  Aragonite         0.29     -8.04   -8.34  CaCO3
  Calcite           0.44     -8.04   -8.48  CaCO3
  CH4(g)          -28.31    -31.12   -2.80  CH4
  CO2(g)           -6.16     -7.63   -1.47  CO2
  Dolomite          1.00    -16.08  -17.08  CaMg(CO3)2
  H2(g)           -12.02    -15.12   -3.10  H2
  H2O(g)           -1.50     -0.00    1.50  H2O
  O2(g)           -59.25    -62.14   -2.89  O2

**For a gas, SI = log10(fugacity). Fugacity = pressure * phi / 1 atm.
  For ideal gases, phi = 1.

------------------
End of simulation.
------------------

------------------------------------
Reading input data for simulation 6.
------------------------------------

	USE solution 2
	EQUILIBRIUM_PHASES 1
		Dolomite	0.0	0.1 dissolve_only
	REACTION
		HCl	1.0
		.5 moles in 5 steps
	END
-----------------------------------------
Beginning of batch-reaction calculations.
-----------------------------------------

Reaction step 1.

Using solution 2.	Solution after simulation 3.
Using pure phase assemblage 1.	
Using reaction 1.	

Reaction 1.	

	  1.000e-01 moles of the following reaction have been added:

	                 Relative
	Reactant            moles

	HCl                  1.00000

	                 Relative
	Element             moles
	Cl                   1.00000
	H                    1.00000

-------------------------------Phase assemblage--------------------------------

                                                      Moles in assemblage
Phase               SI  log IAP  log K(T, P)   Initial       Final       Delta

Dolomite          0.00   -17.08    -17.08    1.000e-01   7.064e-02  -2.936e-02

-----------------------------Solution composition------------------------------

	Elements           Molality       Moles

	C                 5.894e-02   5.898e-02
	Ca                2.947e-02   2.949e-02
	Cl                9.993e-02   1.000e-01
	Mg                2.947e-02   2.949e-02

----------------------------Description of solution----------------------------

                                       pH  =   5.764      Charge balance
                                       pe  =  12.092      Adjusted to redox equilibrium
      Specific Conductance (µS/cm,  25°C)  = 10988
                          Density (g/cm³)  =   1.00277
                               Volume (L)  =   1.00630
                        Activity of water  =   0.996
                 Ionic strength (mol/kgw)  =   1.699e-01
                       Mass of water (kg)  =   1.001e+00
                 Total alkalinity (eq/kg)  =   1.796e-02
                       Total CO2 (mol/kg)  =   5.894e-02
                         Temperature (°C)  =  25.00
                  Electrical balance (eq)  =  -1.481e-09
 Percent error, 100*(Cat-|An|)/(Cat+|An|)  =  -0.00
                               Iterations  =  17
                                  Total H  = 1.111124e+02
                                  Total O  = 5.568317e+01

----------------------------Distribution of species----------------------------

                                               Log       Log       Log    mole V
   Species          Molality    Activity  Molality  Activity     Gamma   cm³/mol

   H+              2.140e-06   1.720e-06    -5.670    -5.764    -0.095      0.00
   OH-             8.141e-09   5.862e-09    -8.089    -8.232    -0.143     -3.56
   H2O             5.551e+01   9.964e-01     1.744    -0.002     0.000     18.07
C(-4)         0.000e+00
   CH4             0.000e+00   0.000e+00  -119.849  -119.832     0.017     35.46
C(4)          5.894e-02
   CO2             4.093e-02   4.256e-02    -1.388    -1.371     0.017     34.43
   HCO3-           1.450e-02   1.096e-02    -1.839    -1.960    -0.121     25.43
   MgHCO3+         1.736e-03   1.268e-03    -2.760    -2.897    -0.136      5.70
   CaHCO3+         1.705e-03   1.305e-03    -2.768    -2.884    -0.116      9.87
   (CO2)2          3.197e-05   3.325e-05    -4.495    -4.478     0.017     68.87
   CaCO3           4.506e-06   4.686e-06    -5.346    -5.329     0.017    -14.60
   MgCO3           2.711e-06   2.819e-06    -5.567    -5.550     0.017    -17.09
   CO3-2           9.147e-07   2.989e-07    -6.039    -6.525    -0.486     -3.76
Ca            2.947e-02
   Ca+2            2.776e-02   9.333e-03    -1.557    -2.030    -0.473    -17.27
   CaHCO3+         1.705e-03   1.305e-03    -2.768    -2.884    -0.116      9.87
   CaCO3           4.506e-06   4.686e-06    -5.346    -5.329     0.017    -14.60
   CaOH+           1.190e-09   8.971e-10    -8.924    -9.047    -0.123     (0)  
Cl            9.993e-02
   Cl-             9.993e-02   7.271e-02    -1.000    -1.138    -0.138     18.43
H(0)          2.633e-39
   H2              1.316e-39   1.369e-39   -38.881   -38.864     0.017     28.61
Mg            2.947e-02
   Mg+2            2.773e-02   9.885e-03    -1.557    -2.005    -0.448    -20.98
   MgHCO3+         1.736e-03   1.268e-03    -2.760    -2.897    -0.136      5.70
   MgCO3           2.711e-06   2.819e-06    -5.567    -5.550     0.017    -17.09
   MgOH+           2.689e-08   2.079e-08    -7.570    -7.682    -0.112     (0)  
O(0)          4.247e-15
   O2              2.123e-15   2.208e-15   -14.673   -14.656     0.017     30.40

------------------------------Saturation indices-------------------------------

  Phase               SI** log IAP   log K(298 K,   1 atm)

  Aragonite        -0.22     -8.55   -8.34  CaCO3
  Calcite          -0.07     -8.55   -8.48  CaCO3
  CH4(g)         -117.03   -119.83   -2.80  CH4
  CO2(g)            0.10     -1.37   -1.47  CO2
  Dolomite          0.00    -17.08  -17.08  CaMg(CO3)2
  H2(g)           -35.76    -38.86   -3.10  H2
  H2O(g)           -1.50     -0.00    1.50  H2O
  O2(g)           -11.76    -14.66   -2.89  O2

**For a gas, SI = log10(fugacity). Fugacity = pressure * phi / 1 atm.
  For ideal gases, phi = 1.

Reaction step 2.

Using solution 2.	Solution after simulation 3.
Using pure phase assemblage 1.	
Using reaction 1.	

Reaction 1.	

	  2.000e-01 moles of the following reaction have been added:

	                 Relative
	Reactant            moles

	HCl                  1.00000

	                 Relative
	Element             moles
	Cl                   1.00000
	H                    1.00000

-------------------------------Phase assemblage--------------------------------

                                                      Moles in assemblage
Phase               SI  log IAP  log K(T, P)   Initial       Final       Delta

Dolomite          0.00   -17.08    -17.08    1.000e-01   4.395e-02  -5.605e-02

-----------------------------Solution composition------------------------------

	Elements           Molality       Moles

	C                 1.122e-01   1.124e-01
	Ca                5.609e-02   5.618e-02
	Cl                1.997e-01   2.000e-01
	Mg                5.609e-02   5.618e-02

----------------------------Description of solution----------------------------

                                       pH  =   5.487      Charge balance
                                       pe  =   0.176      Adjusted to redox equilibrium
      Specific Conductance (µS/cm,  25°C)  = 19865
                          Density (g/cm³)  =   1.00777
                               Volume (L)  =   1.00980
                        Activity of water  =   0.993
                 Ionic strength (mol/kgw)  =   3.227e-01
                       Mass of water (kg)  =   1.002e+00
                 Total alkalinity (eq/kg)  =   2.468e-02
                       Total CO2 (mol/kg)  =   1.122e-01
                         Temperature (°C)  =  25.00
                  Electrical balance (eq)  =   4.115e-10
 Percent error, 100*(Cat-|An|)/(Cat+|An|)  =   0.00
                               Iterations  =  10
                                  Total H  = 1.112124e+02
                                  Total O  = 5.584329e+01

----------------------------Distribution of species----------------------------

                                               Log       Log       Log    mole V
   Species          Molality    Activity  Molality  Activity     Gamma   cm³/mol

   H+              4.177e-06   3.256e-06    -5.379    -5.487    -0.108      0.00
   OH-             4.621e-09   3.086e-09    -8.335    -8.511    -0.175     -3.25
   H2O             5.551e+01   9.929e-01     1.744    -0.003     0.000     18.07
C(-4)         1.079e-22
   CH4             1.079e-22   1.162e-22   -21.967   -21.935     0.032     35.46
C(4)          1.122e-01
   CO2             8.721e-02   9.393e-02    -1.059    -1.027     0.032     34.43
   HCO3-           1.776e-02   1.274e-02    -1.751    -1.895    -0.144     25.93
   MgHCO3+         3.566e-03   2.434e-03    -2.448    -2.614    -0.166      5.75
   CaHCO3+         3.338e-03   2.437e-03    -2.476    -2.613    -0.137      9.91
   (CO2)2          1.504e-04   1.620e-04    -3.823    -3.791     0.032     68.87
   CaCO3           4.290e-06   4.621e-06    -5.368    -5.335     0.032    -14.60
   MgCO3           2.654e-06   2.859e-06    -5.576    -5.544     0.032    -17.09
   CO3-2           6.931e-07   1.835e-07    -6.159    -6.736    -0.577     -3.10
Ca            5.609e-02
   Ca+2            5.275e-02   1.499e-02    -1.278    -1.824    -0.546    -17.03
   CaHCO3+         3.338e-03   2.437e-03    -2.476    -2.613    -0.137      9.91
   CaCO3           4.290e-06   4.621e-06    -5.368    -5.335     0.032    -14.60
   CaOH+           1.036e-09   7.587e-10    -8.985    -9.120    -0.135     (0)  
Cl            1.997e-01
   Cl-             1.997e-01   1.359e-01    -0.700    -0.867    -0.167     18.57
H(0)          6.205e-15
   H2              3.103e-15   3.342e-15   -14.508   -14.476     0.032     28.61
Mg            5.609e-02
   Mg+2            5.252e-02   1.633e-02    -1.280    -1.787    -0.507    -20.75
   MgHCO3+         3.566e-03   2.434e-03    -2.448    -2.614    -0.166      5.75
   MgCO3           2.654e-06   2.859e-06    -5.576    -5.544     0.032    -17.09
   MgOH+           2.444e-08   1.808e-08    -7.612    -7.743    -0.131     (0)  
O(0)          0.000e+00
   O2              0.000e+00   0.000e+00   -63.466   -63.434     0.032     30.40

------------------------------Saturation indices-------------------------------

  Phase               SI** log IAP   log K(298 K,   1 atm)

  Aragonite        -0.22     -8.56   -8.34  CaCO3
  Calcite          -0.08     -8.56   -8.48  CaCO3
  CH4(g)          -19.13    -21.93   -2.80  CH4
  CO2(g)            0.44     -1.03   -1.47  CO2
  Dolomite          0.00    -17.08  -17.08  CaMg(CO3)2
  H2(g)           -11.37    -14.48   -3.10  H2
  H2O(g)           -1.51     -0.00    1.50  H2O
  O2(g)           -60.54    -63.43   -2.89  O2

**For a gas, SI = log10(fugacity). Fugacity = pressure * phi / 1 atm.
  For ideal gases, phi = 1.

Reaction step 3.

Using solution 2.	Solution after simulation 3.
Using pure phase assemblage 1.	
Using reaction 1.	

Reaction 1.	

	  3.000e-01 moles of the following reaction have been added:

	                 Relative
	Reactant            moles

	HCl                  1.00000

	                 Relative
	Element             moles
	Cl                   1.00000
	H                    1.00000

-------------------------------Phase assemblage--------------------------------

                                                      Moles in assemblage
Phase               SI  log IAP  log K(T, P)   Initial       Final       Delta

Dolomite          0.00   -17.08    -17.08    1.000e-01   1.755e-02  -8.245e-02

-----------------------------Solution composition------------------------------

	Elements           Molality       Moles

	C                 1.648e-01   1.652e-01
	Ca                8.238e-02   8.258e-02
	Cl                2.993e-01   3.000e-01
	Mg                8.238e-02   8.258e-02

----------------------------Description of solution----------------------------

                                       pH  =   5.319      Charge balance
                                       pe  =   1.166      Adjusted to redox equilibrium
      Specific Conductance (µS/cm,  25°C)  = 27953
                          Density (g/cm³)  =   1.01264
                               Volume (L)  =   1.01336
                        Activity of water  =   0.989
                 Ionic strength (mol/kgw)  =   4.732e-01
                       Mass of water (kg)  =   1.002e+00
                 Total alkalinity (eq/kg)  =   3.025e-02
                       Total CO2 (mol/kg)  =   1.648e-01
                         Temperature (°C)  =  25.00
                  Electrical balance (eq)  =  -1.217e-09
 Percent error, 100*(Cat-|An|)/(Cat+|An|)  =  -0.00
                               Iterations  =  11
                                  Total H  = 1.113124e+02
                                  Total O  = 5.600170e+01

----------------------------Distribution of species----------------------------

                                               Log       Log       Log    mole V
   Species          Molality    Activity  Molality  Activity     Gamma   cm³/mol

   H+              6.258e-06   4.795e-06    -5.204    -5.319    -0.116      0.00
   OH-             3.279e-09   2.089e-09    -8.484    -8.680    -0.196     -2.97
   H2O             5.551e+01   9.895e-01     1.744    -0.005     0.000     18.07
C(-4)         4.389e-29
   CH4             4.389e-29   4.895e-29   -28.358   -28.310     0.047     35.46
C(4)          1.648e-01
   CO2             1.338e-01   1.492e-01    -0.874    -0.826     0.047     34.43
   HCO3-           1.970e-02   1.369e-02    -1.705    -1.864    -0.158     26.39
   MgHCO3+         5.540e-03   3.624e-03    -2.257    -2.441    -0.184      5.79
   CaHCO3+         5.000e-03   3.549e-03    -2.301    -2.450    -0.149      9.94
   (CO2)2          3.663e-04   4.085e-04    -3.436    -3.389     0.047     68.87
   CaCO3           4.098e-06   4.570e-06    -5.387    -5.340     0.047    -14.60
   MgCO3           2.592e-06   2.891e-06    -5.586    -5.539     0.047    -17.09
   CO3-2           5.740e-07   1.339e-07    -6.241    -6.873    -0.632     -2.57
Ca            8.238e-02
   Ca+2            7.738e-02   2.031e-02    -1.111    -1.692    -0.581    -16.87
   CaHCO3+         5.000e-03   3.549e-03    -2.301    -2.450    -0.149      9.94
   CaCO3           4.098e-06   4.570e-06    -5.387    -5.340     0.047    -14.60
   CaOH+           9.503e-10   6.957e-10    -9.022    -9.158    -0.135     (0)  
Cl            2.993e-01
   Cl-             2.993e-01   1.956e-01    -0.524    -0.709    -0.185     18.67
H(0)          1.358e-16
   H2              6.789e-17   7.571e-17   -16.168   -16.121     0.047     28.61
Mg            8.238e-02
   Mg+2            7.684e-02   2.262e-02    -1.114    -1.645    -0.531    -20.58
   MgHCO3+         5.540e-03   3.624e-03    -2.257    -2.441    -0.184      5.79
   MgCO3           2.592e-06   2.891e-06    -5.586    -5.539     0.047    -17.09
   MgOH+           2.351e-08   1.695e-08    -7.629    -7.771    -0.142     (0)  
O(0)          0.000e+00
   O2              0.000e+00   0.000e+00   -60.195   -60.147     0.047     30.40

------------------------------Saturation indices-------------------------------

  Phase               SI** log IAP   log K(298 K,   1 atm)

  Aragonite        -0.23     -8.57   -8.34  CaCO3
  Calcite          -0.09     -8.57   -8.48  CaCO3
  CH4(g)          -25.51    -28.31   -2.80  CH4
  CO2(g)            0.64     -0.83   -1.47  CO2
  Dolomite          0.00    -17.08  -17.08  CaMg(CO3)2
  H2(g)           -13.02    -16.12   -3.10  H2
  H2O(g)           -1.51     -0.00    1.50  H2O
  O2(g)           -57.26    -60.15   -2.89  O2

**For a gas, SI = log10(fugacity). Fugacity = pressure * phi / 1 atm.
  For ideal gases, phi = 1.

Reaction step 4.

Using solution 2.	Solution after simulation 3.
Using pure phase assemblage 1.	
Using reaction 1.	

Reaction 1.	

	  4.000e-01 moles of the following reaction have been added:

	                 Relative
	Reactant            moles

	HCl                  1.00000

	                 Relative
	Element             moles
	Cl                   1.00000
	H                    1.00000

-------------------------------Phase assemblage--------------------------------

                                                      Moles in assemblage
Phase               SI  log IAP  log K(T, P)   Initial       Final       Delta

Dolomite         -6.46   -23.55    -17.08    1.000e-01           0  -1.000e-01

-----------------------------Solution composition------------------------------

	Elements           Molality       Moles

	C                 1.996e-01   2.003e-01
	Ca                9.978e-02   1.001e-01
	Cl                3.986e-01   4.000e-01
	Mg                9.978e-02   1.001e-01

----------------------------Description of solution----------------------------

                                       pH  =   3.564      Charge balance
                                       pe  =   2.021      Adjusted to redox equilibrium
      Specific Conductance (µS/cm,  25°C)  = 34852
                          Density (g/cm³)  =   1.01555
                               Volume (L)  =   1.01723
                        Activity of water  =   0.986
                 Ionic strength (mol/kgw)  =   5.983e-01
                       Mass of water (kg)  =   1.004e+00
                 Total alkalinity (eq/kg)  =   5.321e-04
                       Total CO2 (mol/kg)  =   1.996e-01
                         Temperature (°C)  =  25.00
                  Electrical balance (eq)  =  -1.216e-09
 Percent error, 100*(Cat-|An|)/(Cat+|An|)  =  -0.00
                               Iterations  =  11
                                  Total H  = 1.114124e+02
                                  Total O  = 5.610702e+01

----------------------------Distribution of species----------------------------

                                               Log       Log       Log    mole V
   Species          Molality    Activity  Molality  Activity     Gamma   cm³/mol

   H+              3.602e-04   2.732e-04    -3.444    -3.564    -0.120      0.00
   OH-             5.911e-11   3.655e-11   -10.228   -10.437    -0.209     -2.76
   H2O             5.551e+01   9.865e-01     1.744    -0.006     0.000     18.07
C(-4)         1.057e-21
   CH4             1.057e-21   1.213e-21   -20.976   -20.916     0.060     35.46
C(4)          1.996e-01
   CO2             1.970e-01   2.261e-01    -0.705    -0.646     0.060     34.43
   (CO2)2          8.177e-04   9.385e-04    -3.087    -3.028     0.060     68.87
   HCO3-           5.326e-04   3.632e-04    -3.274    -3.440    -0.166     26.76
   MgHCO3+         1.921e-04   1.224e-04    -3.716    -3.912    -0.196      5.81
   CaHCO3+         1.675e-04   1.169e-04    -3.776    -3.932    -0.156      9.95
   CaCO3           2.303e-09   2.643e-09    -8.638    -8.578     0.060    -14.60
   MgCO3           1.494e-09   1.714e-09    -8.826    -8.766     0.060    -17.09
   CO3-2           2.884e-10   6.234e-11    -9.540   -10.205    -0.665     -2.19
Ca            9.978e-02
   Ca+2            9.961e-02   2.523e-02    -1.002    -1.598    -0.596    -16.76
   CaHCO3+         1.675e-04   1.169e-04    -3.776    -3.932    -0.156      9.95
   CaCO3           2.303e-09   2.643e-09    -8.638    -8.578     0.060    -14.60
   CaOH+           2.044e-11   1.512e-11   -10.690   -10.820    -0.131     (0)  
Cl            3.986e-01
   Cl-             3.986e-01   2.544e-01    -0.399    -0.595    -0.195     18.75
H(0)          8.376e-15
   H2              4.188e-15   4.806e-15   -14.378   -14.318     0.060     28.61
Mg            9.978e-02
   Mg+2            9.958e-02   2.882e-02    -1.002    -1.540    -0.539    -20.47
   MgHCO3+         1.921e-04   1.224e-04    -3.716    -3.912    -0.196      5.81
   MgCO3           1.494e-09   1.714e-09    -8.826    -8.766     0.060    -17.09
   MgOH+           5.322e-10   3.778e-10    -9.274    -9.423    -0.149     (0)  
O(0)          0.000e+00
   O2              0.000e+00   0.000e+00   -63.815   -63.755     0.060     30.40

------------------------------Saturation indices-------------------------------

  Phase               SI** log IAP   log K(298 K,   1 atm)

  Aragonite        -3.47    -11.80   -8.34  CaCO3
  Calcite          -3.32    -11.80   -8.48  CaCO3
  CH4(g)          -18.11    -20.92   -2.80  CH4
  CO2(g)            0.82     -0.65   -1.47  CO2
  Dolomite         -6.46    -23.55  -17.08  CaMg(CO3)2
  H2(g)           -11.22    -14.32   -3.10  H2
  H2O(g)           -1.51     -0.01    1.50  H2O
  O2(g)           -60.86    -63.76   -2.89  O2

**For a gas, SI = log10(fugacity). Fugacity = pressure * phi / 1 atm.
  For ideal gases, phi = 1.

Reaction step 5.

Using solution 2.	Solution after simulation 3.
Using pure phase assemblage 1.	
Using reaction 1.	

Reaction 1.	

	  5.000e-01 moles of the following reaction have been added:

	                 Relative
	Reactant            moles

	HCl                  1.00000

	                 Relative
	Element             moles
	Cl                   1.00000
	H                    1.00000

-------------------------------Phase assemblage--------------------------------

                                                      Moles in assemblage
Phase               SI  log IAP  log K(T, P)   Initial       Final       Delta

Dolomite        -16.20   -33.28    -17.08    1.000e-01           0  -1.000e-01

-----------------------------Solution composition------------------------------

	Elements           Molality       Moles

	C                 1.995e-01   2.003e-01
	Ca                9.977e-02   1.001e-01
	Cl                4.982e-01   5.000e-01
	Mg                9.977e-02   1.001e-01

----------------------------Description of solution----------------------------

                                       pH  =   1.127      Charge balance
                                       pe  =   4.678      Adjusted to redox equilibrium
      Specific Conductance (µS/cm,  25°C)  = 67856
                          Density (g/cm³)  =   1.01720
                               Volume (L)  =   1.01917
                        Activity of water  =   0.983
                 Ionic strength (mol/kgw)  =   6.978e-01
                       Mass of water (kg)  =   1.004e+00
                 Total alkalinity (eq/kg)  =  -9.911e-02
                       Total CO2 (mol/kg)  =   1.995e-01
                         Temperature (°C)  =  25.00
                  Electrical balance (eq)  =  -1.210e-09
 Percent error, 100*(Cat-|An|)/(Cat+|An|)  =  -0.00
                               Iterations  =  12
                                  Total H  = 1.115124e+02
                                  Total O  = 5.610702e+01

----------------------------Distribution of species----------------------------

                                               Log       Log       Log    mole V
   Species          Molality    Activity  Molality  Activity     Gamma   cm³/mol

   H+              9.911e-02   7.470e-02    -1.004    -1.127    -0.123      0.00
   OH-             2.197e-13   1.332e-13   -12.658   -12.875    -0.217     -2.59
   H2O             5.551e+01   9.831e-01     1.744    -0.007     0.000     18.07
C(-4)         1.851e-23
   CH4             1.851e-23   2.174e-23   -22.733   -22.663     0.070     35.46
C(4)          1.995e-01
   CO2             1.979e-01   2.323e-01    -0.704    -0.634     0.070     34.43
   (CO2)2          8.438e-04   9.909e-04    -3.074    -3.004     0.070     68.87
   HCO3-           2.019e-06   1.360e-06    -5.695    -5.866    -0.172     27.05
   MgHCO3+         7.315e-07   4.583e-07    -6.136    -6.339    -0.203      5.82
   CaHCO3+         6.252e-07   4.315e-07    -6.204    -6.365    -0.161      9.96
   CaCO3           3.038e-14   3.567e-14   -13.517   -13.448     0.070    -14.60
   MgCO3           1.998e-14   2.346e-14   -13.699   -13.630     0.070    -17.09
   CO3-2           4.150e-15   8.537e-16   -14.382   -15.069    -0.687     -1.91
Ca            9.977e-02
   Ca+2            9.977e-02   2.487e-02    -1.001    -1.604    -0.603    -16.68
   CaHCO3+         6.252e-07   4.315e-07    -6.204    -6.365    -0.161      9.96
   CaOH+           7.250e-14   5.432e-14   -13.140   -13.265    -0.125     (0)  
   CaCO3           3.038e-14   3.567e-14   -13.517   -13.448     0.070    -14.60
Cl            4.982e-01
   Cl-             4.982e-01   3.132e-01    -0.303    -0.504    -0.202     18.80
H(0)          2.970e-15
   H2              1.485e-15   1.744e-15   -14.828   -14.759     0.070     28.61
Mg            9.977e-02
   Mg+2            9.977e-02   2.880e-02    -1.001    -1.541    -0.540    -20.39
   MgHCO3+         7.315e-07   4.583e-07    -6.136    -6.339    -0.203      5.82
   MgOH+           1.958e-12   1.376e-12   -11.708   -11.861    -0.153     (0)  
   MgCO3           1.998e-14   2.346e-14   -13.699   -13.630     0.070    -17.09
O(0)          0.000e+00
   O2              0.000e+00   0.000e+00   -62.948   -62.878     0.070     30.40

------------------------------Saturation indices-------------------------------

  Phase               SI** log IAP   log K(298 K,   1 atm)

  Aragonite        -8.34    -16.67   -8.34  CaCO3
  Calcite          -8.19    -16.67   -8.48  CaCO3
  CH4(g)          -19.86    -22.66   -2.80  CH4
  CO2(g)            0.83     -0.63   -1.47  CO2
  Dolomite        -16.20    -33.28  -17.08  CaMg(CO3)2
  H2(g)           -11.66    -14.76   -3.10  H2
  H2O(g)           -1.51     -0.01    1.50  H2O
  O2(g)           -59.99    -62.88   -2.89  O2

**For a gas, SI = log10(fugacity). Fugacity = pressure * phi / 1 atm.
  For ideal gases, phi = 1.

------------------
End of simulation.
------------------

------------------------------------
Reading input data for simulation 7.
------------------------------------

	USE solution 3
	EQUILIBRIUM_PHASES 1
		Dolomite	0.0	.00001 dissolve_only
	REACTION
		CaMg(CO3)2	1.0
		.000040  moles in 8 steps
	END
-----------------------------------------
Beginning of batch-reaction calculations.
-----------------------------------------

Reaction step 1.

Using solution 3.	Solution after simulation 4.
Using pure phase assemblage 1.	
Using reaction 1.	

Reaction 1.	

	  5.000e-06 moles of the following reaction have been added:

	                 Relative
	Reactant            moles

	CaMg(CO3)2           1.00000

	                 Relative
	Element             moles
	C                    2.00000
	Ca                   1.00000
	Mg                   1.00000
	O                    6.00000

-------------------------------Phase assemblage--------------------------------

                                                      Moles in assemblage
Phase               SI  log IAP  log K(T, P)   Initial       Final       Delta

Dolomite         -0.44   -17.52    -17.08    1.000e-05           0  -1.000e-05

-----------------------------Solution composition------------------------------

	Elements           Molality       Moles

	C                 1.254e-04   1.254e-04
	Ca                6.271e-05   6.271e-05
	Mg                6.271e-05   6.271e-05

----------------------------Description of solution----------------------------

                                       pH  =   9.910      Charge balance
                                       pe  =   8.371      Adjusted to redox equilibrium
      Specific Conductance (µS/cm,  25°C)  = 37
                          Density (g/cm³)  =   0.99706
                               Volume (L)  =   1.00296
                        Activity of water  =   1.000
                 Ionic strength (mol/kgw)  =   3.938e-04
                       Mass of water (kg)  =   1.000e+00
                 Total alkalinity (eq/kg)  =   2.508e-04
                       Total CO2 (mol/kg)  =   1.254e-04
                         Temperature (°C)  =  25.00
                  Electrical balance (eq)  =  -1.217e-09
 Percent error, 100*(Cat-|An|)/(Cat+|An|)  =  -0.00
                               Iterations  =  12
                                  Total H  = 1.110124e+02
                                  Total O  = 5.550659e+01

----------------------------Distribution of species----------------------------

                                               Log       Log       Log    mole V
   Species          Molality    Activity  Molality  Activity     Gamma   cm³/mol

   OH-             8.418e-05   8.228e-05    -4.075    -4.085    -0.010     -4.12
   H+              1.257e-10   1.230e-10    -9.901    -9.910    -0.010      0.00
   H2O             5.551e+01   1.000e+00     1.744    -0.000     0.000     18.07
C(-4)         0.000e+00
   CH4             0.000e+00   0.000e+00  -129.491  -129.491     0.000     35.46
C(4)          1.254e-04
   HCO3-           8.573e-05   8.382e-05    -4.067    -4.077    -0.010     24.67
   CO3-2           3.497e-05   3.196e-05    -4.456    -4.495    -0.039     -5.32
   CaCO3           2.926e-06   2.926e-06    -5.534    -5.534     0.000    -14.60
   MgCO3           1.655e-06   1.655e-06    -5.781    -5.781     0.000    -17.09
   CaHCO3+         5.962e-08   5.829e-08    -7.225    -7.234    -0.010      9.66
   MgHCO3+         5.444e-08   5.322e-08    -7.264    -7.274    -0.010      5.47
   CO2             2.318e-08   2.318e-08    -7.635    -7.635     0.000     34.43
   (CO2)2          9.864e-18   9.865e-18   -17.006   -17.006     0.000     68.87
Ca            6.271e-05
   Ca+2            5.965e-05   5.451e-05    -4.224    -4.264    -0.039    -18.18
   CaCO3           2.926e-06   2.926e-06    -5.534    -5.534     0.000    -14.60
   CaOH+           7.523e-08   7.354e-08    -7.124    -7.133    -0.010     (0)  
   CaHCO3+         5.962e-08   5.829e-08    -7.225    -7.234    -0.010      9.66
H(0)          3.885e-40
   H2              1.943e-40   1.943e-40   -39.712   -39.712     0.000     28.61
Mg            6.271e-05
   Mg+2            5.936e-05   5.426e-05    -4.226    -4.265    -0.039    -21.86
   MgCO3           1.655e-06   1.655e-06    -5.781    -5.781     0.000    -17.09
   MgOH+           1.638e-06   1.602e-06    -5.786    -5.795    -0.010     (0)  
   MgHCO3+         5.444e-08   5.322e-08    -7.264    -7.274    -0.010      5.47
O(0)          2.209e-13
   O2              1.104e-13   1.105e-13   -12.957   -12.957     0.000     30.40

------------------------------Saturation indices-------------------------------

  Phase               SI** log IAP   log K(298 K,   1 atm)

  Aragonite        -0.42     -8.76   -8.34  CaCO3
  Calcite          -0.28     -8.76   -8.48  CaCO3
  CH4(g)         -126.69   -129.49   -2.80  CH4
  CO2(g)           -6.17     -7.63   -1.47  CO2
  Dolomite         -0.44    -17.52  -17.08  CaMg(CO3)2
  H2(g)           -36.61    -39.71   -3.10  H2
  H2O(g)           -1.50     -0.00    1.50  H2O
  O2(g)           -10.06    -12.96   -2.89  O2

**For a gas, SI = log10(fugacity). Fugacity = pressure * phi / 1 atm.
  For ideal gases, phi = 1.

Reaction step 2.

Using solution 3.	Solution after simulation 4.
Using pure phase assemblage 1.	
Using reaction 1.	

Reaction 1.	

	  1.000e-05 moles of the following reaction have been added:

	                 Relative
	Reactant            moles

	CaMg(CO3)2           1.00000

	                 Relative
	Element             moles
	C                    2.00000
	Ca                   1.00000
	Mg                   1.00000
	O                    6.00000

-------------------------------Phase assemblage--------------------------------

                                                      Moles in assemblage
Phase               SI  log IAP  log K(T, P)   Initial       Final       Delta

Dolomite         -0.28   -17.37    -17.08    1.000e-05           0  -1.000e-05

-----------------------------Solution composition------------------------------

	Elements           Molality       Moles

	C                 1.354e-04   1.354e-04
	Ca                6.771e-05   6.771e-05
	Mg                6.771e-05   6.771e-05

----------------------------Description of solution----------------------------

                                       pH  =   9.933      Charge balance
                                       pe  =   7.960      Adjusted to redox equilibrium
      Specific Conductance (µS/cm,  25°C)  = 40
                          Density (g/cm³)  =   0.99706
                               Volume (L)  =   1.00296
                        Activity of water  =   1.000
                 Ionic strength (mol/kgw)  =   4.248e-04
                       Mass of water (kg)  =   1.000e+00
                 Total alkalinity (eq/kg)  =   2.708e-04
                       Total CO2 (mol/kg)  =   1.354e-04
                         Temperature (°C)  =  25.00
                  Electrical balance (eq)  =  -1.217e-09
 Percent error, 100*(Cat-|An|)/(Cat+|An|)  =  -0.00
                               Iterations  =  12
                                  Total H  = 1.110124e+02
                                  Total O  = 5.550662e+01

----------------------------Distribution of species----------------------------

                                               Log       Log       Log    mole V
   Species          Molality    Activity  Molality  Activity     Gamma   cm³/mol

   OH-             8.891e-05   8.683e-05    -4.051    -4.061    -0.010     -4.12
   H+              1.193e-10   1.166e-10    -9.924    -9.933    -0.010      0.00
   H2O             5.551e+01   1.000e+00     1.744    -0.000     0.000     18.07
C(-4)         0.000e+00
   CH4             0.000e+00   0.000e+00  -126.394  -126.394     0.000     35.46
C(4)          1.354e-04
   HCO3-           9.067e-05   8.858e-05    -4.043    -4.053    -0.010     24.67
   CO3-2           3.913e-05   3.564e-05    -4.408    -4.448    -0.041     -5.31
   CaCO3           3.493e-06   3.493e-06    -5.457    -5.457     0.000    -14.60
   MgCO3           1.977e-06   1.977e-06    -5.704    -5.704     0.000    -17.09
   CaHCO3+         6.749e-08   6.594e-08    -7.171    -7.181    -0.010      9.66
   MgHCO3+         6.170e-08   6.026e-08    -7.210    -7.220    -0.010      5.47
   CO2             2.321e-08   2.321e-08    -7.634    -7.634     0.000     34.43
   (CO2)2          9.891e-18   9.892e-18   -17.005   -17.005     0.000     68.87
Ca            6.771e-05
   Ca+2            6.406e-05   5.835e-05    -4.193    -4.234    -0.041    -18.18
   CaCO3           3.493e-06   3.493e-06    -5.457    -5.457     0.000    -14.60
   CaOH+           8.505e-08   8.307e-08    -7.070    -7.081    -0.010     (0)  
   CaHCO3+         6.749e-08   6.594e-08    -7.171    -7.181    -0.010      9.66
H(0)          2.310e-39
   H2              1.155e-39   1.155e-39   -38.937   -38.937     0.000     28.61
Mg            6.771e-05
   Mg+2            6.382e-05   5.814e-05    -4.195    -4.236    -0.040    -21.86
   MgCO3           1.977e-06   1.977e-06    -5.704    -5.704     0.000    -17.09
   MgOH+           1.853e-06   1.811e-06    -5.732    -5.742    -0.010     (0)  
   MgHCO3+         6.170e-08   6.026e-08    -7.210    -7.220    -0.010      5.47
O(0)          6.249e-15
   O2              3.125e-15   3.125e-15   -14.505   -14.505     0.000     30.40

------------------------------Saturation indices-------------------------------

  Phase               SI** log IAP   log K(298 K,   1 atm)

  Aragonite        -0.35     -8.68   -8.34  CaCO3
  Calcite          -0.20     -8.68   -8.48  CaCO3
  CH4(g)         -123.59   -126.39   -2.80  CH4
  CO2(g)           -6.17     -7.63   -1.47  CO2
  Dolomite         -0.28    -17.37  -17.08  CaMg(CO3)2
  H2(g)           -35.84    -38.94   -3.10  H2
  H2O(g)           -1.50     -0.00    1.50  H2O
  O2(g)           -11.61    -14.51   -2.89  O2

**For a gas, SI = log10(fugacity). Fugacity = pressure * phi / 1 atm.
  For ideal gases, phi = 1.

Reaction step 3.

Using solution 3.	Solution after simulation 4.
Using pure phase assemblage 1.	
Using reaction 1.	

Reaction 1.	

	  1.500e-05 moles of the following reaction have been added:

	                 Relative
	Reactant            moles

	CaMg(CO3)2           1.00000

	                 Relative
	Element             moles
	C                    2.00000
	Ca                   1.00000
	Mg                   1.00000
	O                    6.00000

-------------------------------Phase assemblage--------------------------------

                                                      Moles in assemblage
Phase               SI  log IAP  log K(T, P)   Initial       Final       Delta

Dolomite         -0.14   -17.22    -17.08    1.000e-05           0  -1.000e-05

-----------------------------Solution composition------------------------------

	Elements           Molality       Moles

	C                 1.454e-04   1.454e-04
	Ca                7.271e-05   7.271e-05
	Mg                7.271e-05   7.271e-05

----------------------------Description of solution----------------------------

                                       pH  =   9.955      Charge balance
                                       pe  =   7.982      Adjusted to redox equilibrium
      Specific Conductance (µS/cm,  25°C)  = 43
                          Density (g/cm³)  =   0.99706
                               Volume (L)  =   1.00296
                        Activity of water  =   1.000
                 Ionic strength (mol/kgw)  =   4.557e-04
                       Mass of water (kg)  =   1.000e+00
                 Total alkalinity (eq/kg)  =   2.908e-04
                       Total CO2 (mol/kg)  =   1.454e-04
                         Temperature (°C)  =  25.00
                  Electrical balance (eq)  =  -1.217e-09
 Percent error, 100*(Cat-|An|)/(Cat+|An|)  =  -0.00
                               Iterations  =  13
                                  Total H  = 1.110124e+02
                                  Total O  = 5.550665e+01

----------------------------Distribution of species----------------------------

                                               Log       Log       Log    mole V
   Species          Molality    Activity  Molality  Activity     Gamma   cm³/mol

   OH-             9.347e-05   9.121e-05    -4.029    -4.040    -0.011     -4.12
   H+              1.136e-10   1.110e-10    -9.945    -9.955    -0.010      0.00
   H2O             5.551e+01   1.000e+00     1.744    -0.000     0.000     18.07
C(-4)         0.000e+00
   CH4             0.000e+00   0.000e+00  -126.737  -126.737     0.000     35.46
C(4)          1.454e-04
   HCO3-           9.545e-05   9.317e-05    -4.020    -4.031    -0.010     24.67
   CO3-2           4.337e-05   3.937e-05    -4.363    -4.405    -0.042     -5.31
   CaCO3           4.109e-06   4.109e-06    -5.386    -5.386     0.000    -14.60
   MgCO3           2.328e-06   2.328e-06    -5.633    -5.633     0.000    -17.09
   CaHCO3+         7.564e-08   7.384e-08    -7.121    -7.132    -0.010      9.66
   MgHCO3+         6.922e-08   6.756e-08    -7.160    -7.170    -0.011      5.47
   CO2             2.324e-08   2.325e-08    -7.634    -7.634     0.000     34.43
   (CO2)2          9.918e-18   9.919e-18   -17.004   -17.004     0.000     68.87
Ca            7.271e-05
   Ca+2            6.843e-05   6.212e-05    -4.165    -4.207    -0.042    -18.18
   CaCO3           4.109e-06   4.109e-06    -5.386    -5.386     0.000    -14.60
   CaOH+           9.520e-08   9.290e-08    -7.021    -7.032    -0.011     (0)  
   CaHCO3+         7.564e-08   7.384e-08    -7.121    -7.132    -0.010      9.66
H(0)          1.895e-39
   H2              9.476e-40   9.477e-40   -39.023   -39.023     0.000     28.61
Mg            7.271e-05
   Mg+2            6.824e-05   6.197e-05    -4.166    -4.208    -0.042    -21.86
   MgCO3           2.328e-06   2.328e-06    -5.633    -5.633     0.000    -17.09
   MgOH+           2.077e-06   2.027e-06    -5.683    -5.693    -0.010     (0)  
   MgHCO3+         6.922e-08   6.756e-08    -7.160    -7.170    -0.011      5.47
O(0)          9.282e-15
   O2              4.641e-15   4.642e-15   -14.333   -14.333     0.000     30.40

------------------------------Saturation indices-------------------------------

  Phase               SI** log IAP   log K(298 K,   1 atm)

  Aragonite        -0.28     -8.61   -8.34  CaCO3
  Calcite          -0.13     -8.61   -8.48  CaCO3
  CH4(g)         -123.93   -126.74   -2.80  CH4
  CO2(g)           -6.17     -7.63   -1.47  CO2
  Dolomite         -0.14    -17.22  -17.08  CaMg(CO3)2
  H2(g)           -35.92    -39.02   -3.10  H2
  H2O(g)           -1.50     -0.00    1.50  H2O
  O2(g)           -11.44    -14.33   -2.89  O2

**For a gas, SI = log10(fugacity). Fugacity = pressure * phi / 1 atm.
  For ideal gases, phi = 1.

Reaction step 4.

Using solution 3.	Solution after simulation 4.
Using pure phase assemblage 1.	
Using reaction 1.	

Reaction 1.	

	  2.000e-05 moles of the following reaction have been added:

	                 Relative
	Reactant            moles

	CaMg(CO3)2           1.00000

	                 Relative
	Element             moles
	C                    2.00000
	Ca                   1.00000
	Mg                   1.00000
	O                    6.00000

-------------------------------Phase assemblage--------------------------------

                                                      Moles in assemblage
Phase               SI  log IAP  log K(T, P)   Initial       Final       Delta

Dolomite         -0.01   -17.09    -17.08    1.000e-05           0  -1.000e-05

-----------------------------Solution composition------------------------------

	Elements           Molality       Moles

	C                 1.554e-04   1.554e-04
	Ca                7.771e-05   7.771e-05
	Mg                7.771e-05   7.771e-05

----------------------------Description of solution----------------------------

                                       pH  =   9.974      Charge balance
                                       pe  =   8.094      Adjusted to redox equilibrium
      Specific Conductance (µS/cm,  25°C)  = 45
                          Density (g/cm³)  =   0.99706
                               Volume (L)  =   1.00296
                        Activity of water  =   1.000
                 Ionic strength (mol/kgw)  =   4.864e-04
                       Mass of water (kg)  =   1.000e+00
                 Total alkalinity (eq/kg)  =   3.108e-04
                       Total CO2 (mol/kg)  =   1.554e-04
                         Temperature (°C)  =  25.00
                  Electrical balance (eq)  =  -1.217e-09
 Percent error, 100*(Cat-|An|)/(Cat+|An|)  =  -0.00
                               Iterations  =  13
                                  Total H  = 1.110124e+02
                                  Total O  = 5.550668e+01

----------------------------Distribution of species----------------------------

                                               Log       Log       Log    mole V
   Species          Molality    Activity  Molality  Activity     Gamma   cm³/mol

   OH-             9.787e-05   9.543e-05    -4.009    -4.020    -0.011     -4.12
   H+              1.087e-10   1.061e-10    -9.964    -9.974    -0.011      0.00
   H2O             5.551e+01   1.000e+00     1.744    -0.000     0.000     18.07
C(-4)         0.000e+00
   CH4             0.000e+00   0.000e+00  -127.793  -127.793     0.000     35.46
C(4)          1.554e-04
   HCO3-           1.001e-04   9.761e-05    -4.000    -4.011    -0.011     24.67
   CO3-2           4.768e-05   4.316e-05    -4.322    -4.365    -0.043     -5.31
   CaCO3           4.773e-06   4.773e-06    -5.321    -5.321     0.000    -14.60
   MgCO3           2.707e-06   2.708e-06    -5.567    -5.567     0.000    -17.09
   CaHCO3+         8.405e-08   8.199e-08    -7.075    -7.086    -0.011      9.66
   MgHCO3+         7.700e-08   7.509e-08    -7.113    -7.124    -0.011      5.47
   CO2             2.327e-08   2.328e-08    -7.633    -7.633     0.000     34.43
   (CO2)2          9.944e-18   9.945e-18   -17.002   -17.002     0.000     68.87
Ca            7.771e-05
   Ca+2            7.275e-05   6.584e-05    -4.138    -4.182    -0.043    -18.17
   CaCO3           4.773e-06   4.773e-06    -5.321    -5.321     0.000    -14.60
   CaOH+           1.056e-07   1.030e-07    -6.976    -6.987    -0.011     (0)  
   CaHCO3+         8.405e-08   8.199e-08    -7.075    -7.086    -0.011      9.66
H(0)          1.032e-39
   H2              5.158e-40   5.159e-40   -39.288   -39.287     0.000     28.61
Mg            7.771e-05
   Mg+2            7.262e-05   6.575e-05    -4.139    -4.182    -0.043    -21.86
   MgCO3           2.707e-06   2.708e-06    -5.567    -5.567     0.000    -17.09
   MgOH+           2.307e-06   2.251e-06    -5.637    -5.648    -0.011     (0)  
   MgHCO3+         7.700e-08   7.509e-08    -7.113    -7.124    -0.011      5.47
O(0)          3.133e-14
   O2              1.566e-14   1.566e-14   -13.805   -13.805     0.000     30.40

------------------------------Saturation indices-------------------------------

  Phase               SI** log IAP   log K(298 K,   1 atm)

  Aragonite        -0.21     -8.55   -8.34  CaCO3
  Calcite          -0.07     -8.55   -8.48  CaCO3
  CH4(g)         -124.99   -127.79   -2.80  CH4
  CO2(g)           -6.16     -7.63   -1.47  CO2
  Dolomite         -0.01    -17.09  -17.08  CaMg(CO3)2
  H2(g)           -36.19    -39.29   -3.10  H2
  H2O(g)           -1.50     -0.00    1.50  H2O
  O2(g)           -10.91    -13.81   -2.89  O2

**For a gas, SI = log10(fugacity). Fugacity = pressure * phi / 1 atm.
  For ideal gases, phi = 1.

Reaction step 5.

Using solution 3.	Solution after simulation 4.
Using pure phase assemblage 1.	
Using reaction 1.	

Reaction 1.	

	  2.500e-05 moles of the following reaction have been added:

	                 Relative
	Reactant            moles

	CaMg(CO3)2           1.00000

	                 Relative
	Element             moles
	C                    2.00000
	Ca                   1.00000
	Mg                   1.00000
	O                    6.00000

-------------------------------Phase assemblage--------------------------------

                                                      Moles in assemblage
Phase               SI  log IAP  log K(T, P)   Initial       Final       Delta

Dolomite          0.00   -17.08    -17.08    1.000e-05   4.621e-06  -5.379e-06

-----------------------------Solution composition------------------------------

	Elements           Molality       Moles

	C                 1.562e-04   1.562e-04
	Ca                7.809e-05   7.809e-05
	Mg                7.809e-05   7.809e-05

----------------------------Description of solution----------------------------

                                       pH  =   9.976      Charge balance
                                       pe  =   7.918      Adjusted to redox equilibrium
      Specific Conductance (µS/cm,  25°C)  = 45
                          Density (g/cm³)  =   0.99706
                               Volume (L)  =   1.00296
[...]
                 Total alkalinity (eq/kg)  =   2.019e-01
                       Total CO2 (mol/kg)  =   9.254e-04
                         Temperature (°C)  =  25.00
                  Electrical balance (eq)  =  -1.217e-09
 Percent error, 100*(Cat-|An|)/(Cat+|An|)  =  -0.00
                               Iterations  =  17
                                  Total H  = 1.112124e+02
                                  Total O  = 5.570899e+01

----------------------------Distribution of species----------------------------

                                               Log       Log       Log    mole V
   Species          Molality    Activity  Molality  Activity     Gamma   cm³/mol

   OH-             1.993e-01   1.408e-01    -0.700    -0.851    -0.151     -3.50
   H+              8.954e-14   7.139e-14   -13.048   -13.146    -0.098      0.00
   H2O             5.551e+01   9.932e-01     1.744    -0.003     0.000     18.07
C(-4)         0.000e+00
   CH4             0.000e+00   0.000e+00  -132.969  -132.949     0.020     35.46
C(4)          9.254e-04
   NaCO3-          4.865e-04   3.630e-04    -3.313    -3.440    -0.127      0.31
   CO3-2           4.227e-04   1.307e-04    -3.374    -3.884    -0.510     -3.60
   CaCO3           1.511e-05   1.583e-05    -4.821    -4.801     0.020    -14.60
   MgCO3           7.970e-07   8.348e-07    -6.099    -6.078     0.020    -17.09
   HCO3-           2.669e-07   1.990e-07    -6.574    -6.701    -0.127     25.54
   NaHCO3          1.593e-08   1.669e-08    -7.798    -7.778     0.020      1.80
   CaHCO3+         2.420e-10   1.830e-10    -9.616    -9.738    -0.121      9.88
   MgHCO3+         2.171e-11   1.558e-11   -10.663   -10.807    -0.144      5.71
   CO2             3.071e-14   3.216e-14   -13.513   -13.493     0.020     34.43
   (CO2)2          1.813e-29   1.899e-29   -28.742   -28.721     0.020     68.87
Ca            4.627e-04
   Ca+2            2.246e-04   7.206e-05    -3.649    -4.142    -0.494    -17.21
   CaOH+           2.230e-04   1.664e-04    -3.652    -3.779    -0.127     (0)  
   CaCO3           1.511e-05   1.583e-05    -4.821    -4.801     0.020    -14.60
   CaHCO3+         2.420e-10   1.830e-10    -9.616    -9.738    -0.121      9.88
H(0)          1.472e-39
   H2              7.359e-40   7.708e-40   -39.133   -39.113     0.020     28.61
Mg            4.627e-04
   MgOH+           4.424e-04   3.380e-04    -3.354    -3.471    -0.117     (0)  
   Mg+2            1.954e-05   6.692e-06    -4.709    -5.174    -0.465    -20.92
   MgCO3           7.970e-07   8.348e-07    -6.099    -6.078     0.020    -17.09
   MgHCO3+         2.171e-11   1.558e-11   -10.663   -10.807    -0.144      5.71
Na            2.000e-01
   Na+             1.995e-01   1.491e-01    -0.700    -0.826    -0.126     -0.93
   NaCO3-          4.865e-04   3.630e-04    -3.313    -3.440    -0.127      0.31
   NaHCO3          1.593e-08   1.669e-08    -7.798    -7.778     0.020      1.80
   NaOH            2.005e-12   2.100e-12   -11.698   -11.678     0.020     (0)  
O(0)          1.321e-14
   O2              6.607e-15   6.920e-15   -14.180   -14.160     0.020     30.40

------------------------------Saturation indices-------------------------------

  Phase               SI** log IAP   log K(298 K,   1 atm)

  Aragonite         0.31     -8.03   -8.34  CaCO3
  Calcite           0.45     -8.03   -8.48  CaCO3
  CH4(g)         -130.15   -132.95   -2.80  CH4
  CO2(g)          -12.02    -13.49   -1.47  CO2
  Dolomite          0.00    -17.08  -17.08  CaMg(CO3)2
  H2(g)           -36.01    -39.11   -3.10  H2
  H2O(g)           -1.51     -0.00    1.50  H2O
  O2(g)           -11.27    -14.16   -2.89  O2

**For a gas, SI = log10(fugacity). Fugacity = pressure * phi / 1 atm.
  For ideal gases, phi = 1.

Reaction step 3.

Using solution 3.	Solution after simulation 4.
Using pure phase assemblage 1.	
Using reaction 1.	

Reaction 1.	

	  3.000e-01 moles of the following reaction have been added:

	                 Relative
	Reactant            moles

	NaOH                 1.00000

	                 Relative
	Element             moles
	H                    1.00000
	Na                   1.00000
	O                    1.00000

-------------------------------Phase assemblage--------------------------------

                                                      Moles in assemblage
Phase               SI  log IAP  log K(T, P)   Initial       Final       Delta

Dolomite          0.00   -17.08    -17.08    7.000e-04   1.269e-04  -5.731e-04

-----------------------------Solution composition------------------------------

	Elements           Molality       Moles

	C                 1.242e-03   1.242e-03
	Ca                6.208e-04   6.208e-04
	Mg                6.208e-04   6.208e-04
	Na                3.000e-01   3.000e-01

----------------------------Description of solution----------------------------

                                       pH  =  13.303      Charge balance
                                       pe  =   4.613      Adjusted to redox equilibrium
      Specific Conductance (µS/cm,  25°C)  = 62470
                          Density (g/cm³)  =   1.01036
                               Volume (L)  =   1.00173
                        Activity of water  =   0.990
                 Ionic strength (mol/kgw)  =   3.015e-01
                       Mass of water (kg)  =   1.000e+00
                 Total alkalinity (eq/kg)  =   3.025e-01
                       Total CO2 (mol/kg)  =   1.242e-03
                         Temperature (°C)  =  25.00
                  Electrical balance (eq)  =  -1.217e-09
 Percent error, 100*(Cat-|An|)/(Cat+|An|)  =  -0.00
                               Iterations  =  17
                                  Total H  = 1.113124e+02
                                  Total O  = 5.580994e+01

----------------------------Distribution of species----------------------------

                                               Log       Log       Log    mole V
   Species          Molality    Activity  Molality  Activity     Gamma   cm³/mol

   OH-             2.991e-01   2.014e-01    -0.524    -0.696    -0.172     -3.29
   H+              6.360e-14   4.974e-14   -13.197   -13.303    -0.107      0.00
   H2O             5.551e+01   9.898e-01     1.744    -0.004     0.000     18.07
C(-4)         0.000e+00
   CH4             0.000e+00   0.000e+00  -132.760  -132.730     0.030     35.46
C(4)          1.242e-03
   NaCO3-          7.352e-04   5.392e-04    -3.134    -3.268    -0.135      0.87
   CO3-2           4.896e-04   1.325e-04    -3.310    -3.878    -0.567     -3.18
   CaCO3           1.578e-05   1.691e-05    -4.802    -4.772     0.030    -14.60
   MgCO3           7.287e-07   7.811e-07    -6.137    -6.107     0.030    -17.09
   HCO3-           1.949e-07   1.406e-07    -6.710    -6.852    -0.142     25.86
   NaHCO3          1.611e-08   1.727e-08    -7.793    -7.763     0.030      1.80
   CaHCO3+         1.857e-10   1.362e-10    -9.731    -9.866    -0.135      9.91
   MgHCO3+         1.477e-11   1.016e-11   -10.830   -10.993    -0.163      5.75
   CO2             1.482e-14   1.588e-14   -13.829   -13.799     0.030     34.43
   (CO2)2          4.320e-30   4.631e-30   -29.365   -29.334     0.030     68.87
Ca            6.208e-04
   CaOH+           3.420e-04   2.509e-04    -3.466    -3.601    -0.135     (0)  
   Ca+2            2.629e-04   7.596e-05    -3.580    -4.119    -0.539    -17.06
   CaCO3           1.578e-05   1.691e-05    -4.802    -4.772     0.030    -14.60
   CaHCO3+         1.857e-10   1.362e-10    -9.731    -9.866    -0.135      9.91
H(0)          1.943e-39
   H2              9.713e-40   1.041e-39   -39.013   -38.983     0.030     28.61
Mg            6.208e-04
   MgOH+           6.004e-04   4.462e-04    -3.222    -3.350    -0.129     (0)  
   Mg+2            1.962e-05   6.176e-06    -4.707    -5.209    -0.502    -20.77
   MgCO3           7.287e-07   7.811e-07    -6.137    -6.107     0.030    -17.09
   MgHCO3+         1.477e-11   1.016e-11   -10.830   -10.993    -0.163      5.75
Na            3.000e-01
   Na+             2.993e-01   2.185e-01    -0.524    -0.661    -0.137     -0.81
   NaCO3-          7.352e-04   5.392e-04    -3.134    -3.268    -0.135      0.87
   NaHCO3          1.611e-08   1.727e-08    -7.793    -7.763     0.030      1.80
   NaOH            4.106e-12   4.401e-12   -11.387   -11.356     0.030     (0)  
O(0)          7.030e-15
   O2              3.515e-15   3.768e-15   -14.454   -14.424     0.030     30.40

------------------------------Saturation indices-------------------------------

  Phase               SI** log IAP   log K(298 K,   1 atm)

  Aragonite         0.34     -8.00   -8.34  CaCO3
  Calcite           0.48     -8.00   -8.48  CaCO3
  CH4(g)         -129.93   -132.73   -2.80  CH4
  CO2(g)          -12.33    -13.80   -1.47  CO2
  Dolomite          0.00    -17.08  -17.08  CaMg(CO3)2
  H2(g)           -35.88    -38.98   -3.10  H2
  H2O(g)           -1.51     -0.00    1.50  H2O
  O2(g)           -11.53    -14.42   -2.89  O2

**For a gas, SI = log10(fugacity). Fugacity = pressure * phi / 1 atm.
  For ideal gases, phi = 1.

Reaction step 4.

Using solution 3.	Solution after simulation 4.
Using pure phase assemblage 1.	
Using reaction 1.	

Reaction 1.	

	  4.000e-01 moles of the following reaction have been added:

	                 Relative
	Reactant            moles

	NaOH                 1.00000

	                 Relative
	Element             moles
	H                    1.00000
	Na                   1.00000
	O                    1.00000

-------------------------------Phase assemblage--------------------------------

                                                      Moles in assemblage
Phase               SI  log IAP  log K(T, P)   Initial       Final       Delta

Dolomite         -0.05   -17.13    -17.08    7.000e-04           0  -7.000e-04

-----------------------------Solution composition------------------------------

	Elements           Molality       Moles

	C                 1.495e-03   1.495e-03
	Ca                7.477e-04   7.477e-04
	Mg                7.477e-04   7.477e-04
	Na                4.000e-01   4.000e-01

----------------------------Description of solution----------------------------

                                       pH  =  13.414      Charge balance
                                       pe  =   4.664      Adjusted to redox equilibrium
      Specific Conductance (µS/cm,  25°C)  = 81241
                          Density (g/cm³)  =   1.01468
                               Volume (L)  =   1.00144
                        Activity of water  =   0.986
                 Ionic strength (mol/kgw)  =   4.017e-01
                       Mass of water (kg)  =   1.000e+00
                 Total alkalinity (eq/kg)  =   4.030e-01
                       Total CO2 (mol/kg)  =   1.495e-03
                         Temperature (°C)  =  25.00
                  Electrical balance (eq)  =  -1.221e-09
 Percent error, 100*(Cat-|An|)/(Cat+|An|)  =  -0.00
                               Iterations  =  17
                                  Total H  = 1.114124e+02
                                  Total O  = 5.591070e+01

----------------------------Distribution of species----------------------------

                                               Log       Log       Log    mole V
   Species          Molality    Activity  Molality  Activity     Gamma   cm³/mol

   OH-             3.988e-01   2.593e-01    -0.399    -0.586    -0.187     -3.10
   H+              4.989e-14   3.850e-14   -13.302   -13.414    -0.112      0.00
   H2O             5.551e+01   9.864e-01     1.744    -0.006     0.000     18.07
C(-4)         0.000e+00
   CH4             0.000e+00   0.000e+00  -134.295  -134.255     0.040     35.46
C(4)          1.495e-03
   NaCO3-          9.523e-04   6.956e-04    -3.021    -3.158    -0.136      1.42
   CO3-2           5.271e-04   1.298e-04    -3.278    -3.887    -0.609     -2.81
   CaCO3           1.530e-05   1.679e-05    -4.815    -4.775     0.040    -14.60
   MgCO3           6.441e-07   7.065e-07    -6.191    -6.151     0.040    -17.09
   HCO3-           1.513e-07   1.065e-07    -6.820    -6.972    -0.152     26.17
   NaHCO3          1.572e-08   1.725e-08    -7.803    -7.763     0.040      1.80
   CaHCO3+         1.457e-10   1.047e-10    -9.836    -9.980    -0.144      9.93
   MgHCO3+         1.068e-11   7.112e-12   -10.972   -11.148    -0.176      5.77
   CO2             8.525e-15   9.351e-15   -14.069   -14.029     0.040     34.43
   (CO2)2          1.463e-30   1.605e-30   -29.835   -29.795     0.040     68.87
Ca            7.477e-04
   CaOH+           4.481e-04   3.274e-04    -3.349    -3.485    -0.136     (0)  
   Ca+2            2.843e-04   7.700e-05    -3.546    -4.114    -0.567    -16.94
   CaCO3           1.530e-05   1.679e-05    -4.815    -4.775     0.040    -14.60
   CaHCO3+         1.457e-10   1.047e-10    -9.836    -9.980    -0.144      9.93
H(0)          8.993e-40
   H2              4.496e-40   4.932e-40   -39.347   -39.307     0.040     28.61
Mg            7.477e-04
   MgOH+           7.281e-04   5.307e-04    -3.138    -3.275    -0.137     (0)  
   Mg+2            1.900e-05   5.705e-06    -4.721    -5.244    -0.522    -20.66
   MgCO3           6.441e-07   7.065e-07    -6.191    -6.151     0.040    -17.09
   MgHCO3+         1.068e-11   7.112e-12   -10.972   -11.148    -0.176      5.77
Na            4.000e-01
   Na+             3.990e-01   2.879e-01    -0.399    -0.541    -0.142     -0.71
   NaCO3-          9.523e-04   6.956e-04    -3.021    -3.158    -0.136      1.42
   NaHCO3          1.572e-08   1.725e-08    -7.803    -7.763     0.040      1.80
   NaOH            6.805e-12   7.464e-12   -11.167   -11.127     0.040     (0)  
O(0)          3.040e-14
   O2              1.520e-14   1.667e-14   -13.818   -13.778     0.040     30.40

------------------------------Saturation indices-------------------------------

  Phase               SI** log IAP   log K(298 K,   1 atm)

  Aragonite         0.34     -8.00   -8.34  CaCO3
  Calcite           0.48     -8.00   -8.48  CaCO3
  CH4(g)         -131.45   -134.25   -2.80  CH4
  CO2(g)          -12.56    -14.03   -1.47  CO2
  Dolomite         -0.05    -17.13  -17.08  CaMg(CO3)2
  H2(g)           -36.21    -39.31   -3.10  H2
  H2O(g)           -1.51     -0.01    1.50  H2O
  O2(g)           -10.89    -13.78   -2.89  O2

**For a gas, SI = log10(fugacity). Fugacity = pressure * phi / 1 atm.
  For ideal gases, phi = 1.

Reaction step 5.

Using solution 3.	Solution after simulation 4.
Using pure phase assemblage 1.	
Using reaction 1.	

Reaction 1.	

	  5.000e-01 moles of the following reaction have been added:

	                 Relative
	Reactant            moles

	NaOH                 1.00000

	                 Relative
	Element             moles
	H                    1.00000
	Na                   1.00000
	O                    1.00000

-------------------------------Phase assemblage--------------------------------

                                                      Moles in assemblage
Phase               SI  log IAP  log K(T, P)   Initial       Final       Delta

Dolomite         -0.33   -17.42    -17.08    7.000e-04           0  -7.000e-04

-----------------------------Solution composition------------------------------

	Elements           Molality       Moles

	C                 1.495e-03   1.495e-03
	Ca                7.477e-04   7.477e-04
	Mg                7.477e-04   7.477e-04
	Na                5.000e-01   5.000e-01

----------------------------Description of solution----------------------------

                                       pH  =  13.501      Charge balance
                                       pe  =   4.442      Adjusted to redox equilibrium
      Specific Conductance (µS/cm,  25°C)  = 99375
                          Density (g/cm³)  =   1.01893
                               Volume (L)  =   1.00119
                        Activity of water  =   0.983
                 Ionic strength (mol/kgw)  =   5.015e-01
                       Mass of water (kg)  =   1.000e+00
                 Total alkalinity (eq/kg)  =   5.030e-01
                       Total CO2 (mol/kg)  =   1.495e-03
                         Temperature (°C)  =  25.00
                  Electrical balance (eq)  =  -1.217e-09
 Percent error, 100*(Cat-|An|)/(Cat+|An|)  =  -0.00
                               Iterations  =  17
                                  Total H  = 1.115124e+02
                                  Total O  = 5.601070e+01

----------------------------Distribution of species----------------------------

                                               Log       Log       Log    mole V
   Species          Molality    Activity  Molality  Activity     Gamma   cm³/mol

   OH-             4.988e-01   3.154e-01    -0.302    -0.501    -0.199     -2.92
   H+              4.128e-14   3.155e-14   -13.384   -13.501    -0.117      0.00
   H2O             5.551e+01   9.830e-01     1.744    -0.007     0.000     18.07
C(-4)         0.000e+00
   CH4             0.000e+00   0.000e+00  -133.460  -133.410     0.050     35.46
C(4)          1.495e-03
   NaCO3-          1.002e-03   7.349e-04    -2.999    -3.134    -0.135      1.96
   CO3-2           4.816e-04   1.102e-04    -3.317    -3.958    -0.640     -2.48
   CaCO3           1.115e-05   1.251e-05    -4.953    -4.903     0.050    -14.60
   MgCO3           4.351e-07   4.884e-07    -6.361    -6.311     0.050    -17.09
   HCO3-           1.072e-07   7.415e-08    -6.970    -7.130    -0.160     26.47
   NaHCO3          1.330e-08   1.493e-08    -7.876    -7.826     0.050      1.80
   CaHCO3+         9.047e-11   6.394e-11   -10.043   -10.194    -0.151      9.94
   MgHCO3+         6.198e-12   4.029e-12   -11.208   -11.395    -0.187      5.79
   CO2             4.767e-15   5.351e-15   -14.322   -14.272     0.050     34.43
   (CO2)2          4.682e-31   5.255e-31   -30.330   -30.279     0.050     68.87
Ca            7.477e-04
   CaOH+           4.766e-04   3.495e-04    -3.322    -3.457    -0.135     (0)  
   Ca+2            2.600e-04   6.758e-05    -3.585    -4.170    -0.585    -16.84
   CaCO3           1.115e-05   1.251e-05    -4.953    -4.903     0.050    -14.60
   CaHCO3+         9.047e-11   6.394e-11   -10.043   -10.194    -0.151      9.94
H(0)          1.640e-39
   H2              8.202e-40   9.206e-40   -39.086   -39.036     0.050     28.61
Mg            7.477e-04
   MgOH+           7.314e-04   5.253e-04    -3.136    -3.280    -0.144     (0)  
   Mg+2            1.586e-05   4.643e-06    -4.800    -5.333    -0.534    -20.56
   MgCO3           4.351e-07   4.884e-07    -6.361    -6.311     0.050    -17.09
   MgHCO3+         6.198e-12   4.029e-12   -11.208   -11.395    -0.187      5.79
Na            5.000e-01
   Na+             4.990e-01   3.580e-01    -0.302    -0.446    -0.144     -0.63
   NaCO3-          1.002e-03   7.349e-04    -2.999    -3.134    -0.135      1.96
   NaHCO3          1.330e-08   1.493e-08    -7.876    -7.826     0.050      1.80
   NaOH            1.006e-11   1.129e-11   -10.997   -10.947     0.050     (0)  
O(0)          8.469e-15
   O2              4.235e-15   4.753e-15   -14.373   -14.323     0.050     30.40

------------------------------Saturation indices-------------------------------

  Phase               SI** log IAP   log K(298 K,   1 atm)

  Aragonite         0.21     -8.13   -8.34  CaCO3
  Calcite           0.35     -8.13   -8.48  CaCO3
  CH4(g)         -130.61   -133.41   -2.80  CH4
  CO2(g)          -12.80    -14.27   -1.47  CO2
  Dolomite         -0.33    -17.42  -17.08  CaMg(CO3)2
  H2(g)           -35.93    -39.04   -3.10  H2
  H2O(g)           -1.51     -0.01    1.50  H2O
  O2(g)           -11.43    -14.32   -2.89  O2

**For a gas, SI = log10(fugacity). Fugacity = pressure * phi / 1 atm.
  For ideal gases, phi = 1.

------------------
End of simulation.
------------------

------------------------------------
Reading input data for simulation 9.
------------------------------------

