WARNING: Database file from DATABASE keyword is used; command line argument ignored.
   Input file: dissolve_only
  Output file: dissolve_only.out
Database file: ../database/phreeqc.dat

------------------
Reading data base.
------------------

	SOLUTION_MASTER_SPECIES
	SOLUTION_SPECIES
	PHASES
	EXCHANGE_MASTER_SPECIES
	EXCHANGE_SPECIES
	SURFACE_MASTER_SPECIES
	SURFACE_SPECIES
	CALCULATE_VALUES
	RATES
	END
------------------------------------
Reading input data for simulation 1.
------------------------------------

	DATABASE ../database/phreeqc.dat
	SELECTED_OUTPUT 101
	    file                 dissolve_only_101.sel
	USER_PUNCH 101
	    headings Mu SC
	    start
	10 PUNCH STR_F$(MU, 20, 12)
	20 PUNCH STR_F$(SC, 20, 10)
	    end
	SOLUTION 1
	EQUILIBRIUM_PHASES 1
		Dolomite	0.0	0.00001 dissolve_only
	END
-------------------------------------------
Beginning of initial solution calculations.
-------------------------------------------

Initial solution 1.	

-----------------------------Solution composition------------------------------

	Elements           Molality       Moles

	Pure water     

----------------------------Description of solution----------------------------

                                       pH  =   7.000    
                                       pe  =   4.000    
      Specific Conductance (µS/cm,  25°C)  = 0
                          Density (g/cm³)  =   0.99704
                               Volume (L)  =   1.00297
                        Viscosity (mPa s)  =   0.89002
                        Activity of water  =   1.000
                 Ionic strength (mol/kgw)  =   1.007e-07
                       Mass of water (kg)  =   1.000e+00
                 Total alkalinity (eq/kg)  =   1.217e-09
                         Temperature (°C)  =  25.00
                  Electrical balance (eq)  =  -1.217e-09
 Percent error, 100*(Cat-|An|)/(Cat+|An|)  =  -0.60
                               Iterations  =   0
                                  Total H  = 1.110124e+02
                                  Total O  = 5.550622e+01

----------------------------Distribution of species----------------------------

                                               Log       Log       Log    mole V
   Species          Molality    Activity  Molality  Activity     Gamma   cm³/mol

   OH-             1.013e-07   1.012e-07    -6.995    -6.995    -0.000     -4.14
   H+              1.001e-07   1.000e-07    -7.000    -7.000    -0.000      0.00
   H2O             5.551e+01   1.000e+00     1.744     0.000     0.000     18.07
H(0)          1.416e-25
   H2              7.079e-26   7.079e-26   -25.150   -25.150     0.000     28.61
O(0)          0.000e+00
   O2              0.000e+00   0.000e+00   -42.080   -42.080     0.000     30.40

------------------------------Saturation indices-------------------------------

  Phase               SI** log IAP   log K(298 K,   1 atm)

  H2(g)           -22.05    -25.15   -3.10  H2
  H2O(g)           -1.50      0.00    1.50  H2O
  O2(g)           -39.19    -42.08   -2.89  O2

**For a gas, SI = log10(fugacity). Fugacity = pressure * phi / 1 atm.
  For ideal gases, phi = 1.

-----------------------------------------
Beginning of batch-reaction calculations.
-----------------------------------------

Reaction step 1.

Using solution 1.	
Using pure phase assemblage 1.	

-------------------------------Phase assemblage--------------------------------

                                                      Moles in assemblage
Phase               SI  log IAP  log K(T, P)   Initial       Final       Delta

Dolomite         -4.58   -21.67    -17.08    1.000e-05           0  -1.000e-05

-----------------------------Solution composition------------------------------

	Elements           Molality       Moles

	C                 2.000e-05   2.000e-05
	Ca                1.000e-05   1.000e-05
	Mg                1.000e-05   1.000e-05

----------------------------Description of solution----------------------------

                                       pH  =   9.254      Charge balance
                                       pe  =  -3.269      Adjusted to redox equilibrium
      Specific Conductance (µS/cm,  25°C)  = 6
                          Density (g/cm³)  =   0.99705
                               Volume (L)  =   1.00297
                        Viscosity (mPa s)  =   0.89015
                        Activity of water  =   1.000
                 Ionic strength (mol/kgw)  =   6.133e-05
                       Mass of water (kg)  =   1.000e+00
                 Total alkalinity (eq/kg)  =   4.000e-05
                       Total CO2 (mol/kg)  =   2.000e-05
                         Temperature (°C)  =  25.00
                  Electrical balance (eq)  =  -1.217e-09
 Percent error, 100*(Cat-|An|)/(Cat+|An|)  =  -0.00
                               Iterations  =  16
                                  Total H  = 1.110124e+02
                                  Total O  = 5.550628e+01

----------------------------Distribution of species----------------------------

                                               Log       Log       Log    mole V
   Species          Molality    Activity  Molality  Activity     Gamma   cm³/mol

   OH-             1.833e-05   1.817e-05    -4.737    -4.741    -0.004     -4.13
   H+              5.622e-10   5.571e-10    -9.250    -9.254    -0.004      0.00
   H2O             5.551e+01   1.000e+00     1.744    -0.000     0.000     18.07
C(-4)         7.391e-32
   CH4             7.391e-32   7.391e-32   -31.131   -31.131     0.000     35.46
C(4)          2.000e-05
   HCO3-           1.835e-05   1.818e-05    -4.736    -4.740    -0.004     24.56
   CO3-2           1.587e-06   1.530e-06    -5.799    -5.815    -0.016     -4.02
   CaCO3           2.472e-08   2.472e-08    -7.607    -7.607     0.000    -14.60
   CO2             2.278e-08   2.278e-08    -7.643    -7.643     0.000     34.43
   MgCO3           1.397e-08   1.397e-08    -7.855    -7.855     0.000    -17.09
   CaHCO3+         2.251e-09   2.230e-09    -8.648    -8.652    -0.004      9.65
   MgHCO3+         2.054e-09   2.035e-09    -8.687    -8.691    -0.004      5.46
   (CO2)2          9.521e-18   9.521e-18   -17.021   -17.021     0.000     68.87
Ca            1.000e-05
   Ca+2            9.970e-06   9.615e-06    -5.001    -5.017    -0.016    -18.23
   CaCO3           2.472e-08   2.472e-08    -7.607    -7.607     0.000    -14.60
   CaOH+           2.890e-09   2.864e-09    -8.539    -8.543    -0.004     (0)  
   CaHCO3+         2.251e-09   2.230e-09    -8.648    -8.652    -0.004      9.65
H(0)          1.518e-15
   H2              7.590e-16   7.590e-16   -15.120   -15.120     0.000     28.61
Mg            1.000e-05
   Mg+2            9.921e-06   9.568e-06    -5.003    -5.019    -0.016    -21.91
   MgOH+           6.292e-08   6.235e-08    -7.201    -7.205    -0.004     (0)  
   MgCO3           1.397e-08   1.397e-08    -7.855    -7.855     0.000    -17.09
   MgHCO3+         2.054e-09   2.035e-09    -8.687    -8.691    -0.004      5.46
O(0)          0.000e+00
   O2              0.000e+00   0.000e+00   -62.140   -62.140     0.000     30.40

------------------------------Saturation indices-------------------------------

  Phase               SI** log IAP   log K(298 K,   1 atm)

  Aragonite        -2.50    -10.83   -8.34  CaCO3
  Calcite          -2.35    -10.83   -8.48  CaCO3
  CH4(g)          -28.33    -31.13   -2.80  CH4
  CO2(g)           -6.17     -7.64   -1.47  CO2
  Dolomite         -4.58    -21.67  -17.08  CaMg(CO3)2
  H2(g)           -12.02    -15.12   -3.10  H2
  H2O(g)           -1.50     -0.00    1.50  H2O
  O2(g)           -59.25    -62.14   -2.89  O2

**For a gas, SI = log10(fugacity). Fugacity = pressure * phi / 1 atm.
  For ideal gases, phi = 1.

------------------
End of simulation.
------------------

------------------------------------
Reading input data for simulation 2.
------------------------------------

	SOLUTION 1
	EQUILIBRIUM_PHASES 1
		Dolomite	0.0	0.1 dissolve_only
	END
-------------------------------------------
Beginning of initial solution calculations.
-------------------------------------------

Initial solution 1.	

-----------------------------Solution composition------------------------------

	Elements           Molality       Moles

	Pure water     

----------------------------Description of solution----------------------------

                                       pH  =   7.000    
                                       pe  =   4.000    
      Specific Conductance (µS/cm,  25°C)  = 0
                          Density (g/cm³)  =   0.99704
                               Volume (L)  =   1.00297
                        Viscosity (mPa s)  =   0.89002
                        Activity of water  =   1.000
                 Ionic strength (mol/kgw)  =   1.007e-07
                       Mass of water (kg)  =   1.000e+00
                 Total alkalinity (eq/kg)  =   1.217e-09
                         Temperature (°C)  =  25.00
                  Electrical balance (eq)  =  -1.217e-09
 Percent error, 100*(Cat-|An|)/(Cat+|An|)  =  -0.60
                               Iterations  =   0
                                  Total H  = 1.110124e+02
                                  Total O  = 5.550622e+01

----------------------------Distribution of species----------------------------

                                               Log       Log       Log    mole V
   Species          Molality    Activity  Molality  Activity     Gamma   cm³/mol

   OH-             1.013e-07   1.012e-07    -6.995    -6.995    -0.000     -4.14
   H+              1.001e-07   1.000e-07    -7.000    -7.000    -0.000      0.00
   H2O             5.551e+01   1.000e+00     1.744     0.000     0.000     18.07
H(0)          1.416e-25
   H2              7.079e-26   7.079e-26   -25.150   -25.150     0.000     28.61
O(0)          0.000e+00
   O2              0.000e+00   0.000e+00   -42.080   -42.080     0.000     30.40

------------------------------Saturation indices-------------------------------

  Phase               SI** log IAP   log K(298 K,   1 atm)

  H2(g)           -22.05    -25.15   -3.10  H2
  H2O(g)           -1.50      0.00    1.50  H2O
  O2(g)           -39.19    -42.08   -2.89  O2

**For a gas, SI = log10(fugacity). Fugacity = pressure * phi / 1 atm.
  For ideal gases, phi = 1.

-----------------------------------------
Beginning of batch-reaction calculations.
-----------------------------------------

Reaction step 1.

Using solution 1.	
Using pure phase assemblage 1.	

-------------------------------Phase assemblage--------------------------------

                                                      Moles in assemblage
Phase               SI  log IAP  log K(T, P)   Initial       Final       Delta

Dolomite          0.00   -17.08    -17.08    1.000e-01   9.992e-02  -7.809e-05

-----------------------------Solution composition------------------------------

	Elements           Molality       Moles

	C                 1.562e-04   1.562e-04
	Ca                7.809e-05   7.809e-05
	Mg                7.809e-05   7.809e-05

----------------------------Description of solution----------------------------

                                       pH  =   9.976      Charge balance
                                       pe  =  -3.991      Adjusted to redox equilibrium
      Specific Conductance (µS/cm,  25°C)  = 43
                          Density (g/cm³)  =   0.99706
                               Volume (L)  =   1.00296
                        Viscosity (mPa s)  =   0.89048
                        Activity of water  =   1.000
                 Ionic strength (mol/kgw)  =   4.887e-04
                       Mass of water (kg)  =   1.000e+00
                 Total alkalinity (eq/kg)  =   3.124e-04
                       Total CO2 (mol/kg)  =   1.562e-04
                         Temperature (°C)  =  25.00
                  Electrical balance (eq)  =  -1.217e-09
 Percent error, 100*(Cat-|An|)/(Cat+|An|)  =  -0.00
                               Iterations  =  16
                                  Total H  = 1.110124e+02
                                  Total O  = 5.550669e+01

----------------------------Distribution of species----------------------------

                                               Log       Log       Log    mole V
   Species          Molality    Activity  Molality  Activity     Gamma   cm³/mol

   OH-             9.820e-05   9.574e-05    -4.008    -4.019    -0.011     -4.12
   H+              1.083e-10   1.057e-10    -9.965    -9.976    -0.011      0.00
   H2O             5.551e+01   1.000e+00     1.744    -0.000     0.000     18.07
C(-4)         7.558e-32
   CH4             7.558e-32   7.559e-32   -31.122   -31.122     0.000     35.46
C(4)          1.562e-04
   HCO3-           1.004e-04   9.794e-05    -3.998    -4.009    -0.011     24.57
   CO3-2           4.801e-05   4.345e-05    -4.319    -4.362    -0.043     -3.97
   CaCO3           4.825e-06   4.826e-06    -5.316    -5.316     0.000    -14.60
   MgCO3           2.737e-06   2.738e-06    -5.563    -5.563     0.000    -17.09
   CaHCO3+         8.470e-08   8.262e-08    -7.072    -7.083    -0.011      9.66
   MgHCO3+         7.760e-08   7.567e-08    -7.110    -7.121    -0.011      5.47
   CO2             2.328e-08   2.328e-08    -7.633    -7.633     0.000     34.43
   (CO2)2          9.946e-18   9.947e-18   -17.002   -17.002     0.000     68.87
Ca            7.809e-05
   Ca+2            7.307e-05   6.612e-05    -4.136    -4.180    -0.043    -18.17
   CaCO3           4.825e-06   4.826e-06    -5.316    -5.316     0.000    -14.60
   CaOH+           1.064e-07   1.038e-07    -6.973    -6.984    -0.011     (0)  
   CaHCO3+         8.470e-08   8.262e-08    -7.072    -7.083    -0.011      9.66
H(0)          1.518e-15
   H2              7.590e-16   7.591e-16   -15.120   -15.120     0.000     28.61
Mg            7.809e-05
   Mg+2            7.295e-05   6.603e-05    -4.137    -4.180    -0.043    -21.86
   MgCO3           2.737e-06   2.738e-06    -5.563    -5.563     0.000    -17.09
   MgOH+           2.325e-06   2.268e-06    -5.634    -5.644    -0.011     (0)  
   MgHCO3+         7.760e-08   7.567e-08    -7.110    -7.121    -0.011      5.47
O(0)          0.000e+00
   O2              0.000e+00   0.000e+00   -62.141   -62.141     0.000     30.40

------------------------------Saturation indices-------------------------------

  Phase               SI** log IAP   log K(298 K,   1 atm)

  Aragonite        -0.21     -8.54   -8.34  CaCO3
  Calcite          -0.06     -8.54   -8.48  CaCO3
  CH4(g)          -28.32    -31.12   -2.80  CH4
  CO2(g)           -6.16     -7.63   -1.47  CO2
  Dolomite          0.00    -17.08  -17.08  CaMg(CO3)2
  H2(g)           -12.02    -15.12   -3.10  H2
  H2O(g)           -1.50     -0.00    1.50  H2O
  O2(g)           -59.25    -62.14   -2.89  O2

**For a gas, SI = log10(fugacity). Fugacity = pressure * phi / 1 atm.
  For ideal gases, phi = 1.

------------------
End of simulation.
------------------

------------------------------------
Reading input data for simulation 3.
------------------------------------

	SOLUTION 1
	EQUILIBRIUM_PHASES 1
		Dolomite	1.0	0.1 dissolve_only
	SAVE solution 2
	END
-------------------------------------------
Beginning of initial solution calculations.
-------------------------------------------

Initial solution 1.	

-----------------------------Solution composition------------------------------

	Elements           Molality       Moles

	Pure water     

----------------------------Description of solution----------------------------

                                       pH  =   7.000    
                                       pe  =   4.000    
      Specific Conductance (µS/cm,  25°C)  = 0
                          Density (g/cm³)  =   0.99704
                               Volume (L)  =   1.00297
                        Viscosity (mPa s)  =   0.89002
                        Activity of water  =   1.000
                 Ionic strength (mol/kgw)  =   1.007e-07
                       Mass of water (kg)  =   1.000e+00
                 Total alkalinity (eq/kg)  =   1.217e-09
                         Temperature (°C)  =  25.00
                  Electrical balance (eq)  =  -1.217e-09
 Percent error, 100*(Cat-|An|)/(Cat+|An|)  =  -0.60
                               Iterations  =   0
                                  Total H  = 1.110124e+02
                                  Total O  = 5.550622e+01

----------------------------Distribution of species----------------------------

                                               Log       Log       Log    mole V
   Species          Molality    Activity  Molality  Activity     Gamma   cm³/mol

   OH-             1.013e-07   1.012e-07    -6.995    -6.995    -0.000     -4.14
   H+              1.001e-07   1.000e-07    -7.000    -7.000    -0.000      0.00
   H2O             5.551e+01   1.000e+00     1.744     0.000     0.000     18.07
H(0)          1.416e-25
   H2              7.079e-26   7.079e-26   -25.150   -25.150     0.000     28.61
O(0)          0.000e+00
   O2              0.000e+00   0.000e+00   -42.080   -42.080     0.000     30.40

------------------------------Saturation indices-------------------------------

  Phase               SI** log IAP   log K(298 K,   1 atm)

  H2(g)           -22.05    -25.15   -3.10  H2
  H2O(g)           -1.50      0.00    1.50  H2O
  O2(g)           -39.19    -42.08   -2.89  O2

**For a gas, SI = log10(fugacity). Fugacity = pressure * phi / 1 atm.
  For ideal gases, phi = 1.

-----------------------------------------
Beginning of batch-reaction calculations.
-----------------------------------------

Reaction step 1.

Using solution 1.	
Using pure phase assemblage 1.	

-------------------------------Phase assemblage--------------------------------

                                                      Moles in assemblage
Phase               SI  log IAP  log K(T, P)   Initial       Final       Delta

Dolomite          1.00   -16.08    -17.08    1.000e-01   9.987e-02  -1.335e-04

-----------------------------Solution composition------------------------------

	Elements           Molality       Moles

	C                 2.670e-04   2.670e-04
	Ca                1.335e-04   1.335e-04
	Mg                1.335e-04   1.335e-04

----------------------------Description of solution----------------------------

                                       pH  =  10.123      Charge balance
                                       pe  =  -4.139      Adjusted to redox equilibrium
      Specific Conductance (µS/cm,  25°C)  = 67
                          Density (g/cm³)  =   0.99707
                               Volume (L)  =   1.00296
                        Viscosity (mPa s)  =   0.89066
                        Activity of water  =   1.000
                 Ionic strength (mol/kgw)  =   8.165e-04
                       Mass of water (kg)  =   1.000e+00
                 Total alkalinity (eq/kg)  =   5.340e-04
                       Total CO2 (mol/kg)  =   2.670e-04
                         Temperature (°C)  =  25.00
                  Electrical balance (eq)  =  -1.217e-09
 Percent error, 100*(Cat-|An|)/(Cat+|An|)  =  -0.00
                               Iterations  =  17
                                  Total H  = 1.110124e+02
                                  Total O  = 5.550702e+01

----------------------------Distribution of species----------------------------

                                               Log       Log       Log    mole V
   Species          Molality    Activity  Molality  Activity     Gamma   cm³/mol

   OH-             1.389e-04   1.345e-04    -3.857    -3.871    -0.014     -4.11
   H+              7.762e-11   7.525e-11   -10.110   -10.123    -0.013      0.00
   H2O             5.551e+01   1.000e+00     1.744    -0.000     0.000     18.07
C(-4)         7.665e-32
   CH4             7.665e-32   7.666e-32   -31.116   -31.115     0.000     35.46
C(4)          2.670e-04
   HCO3-           1.440e-04   1.395e-04    -3.842    -3.856    -0.014     24.58
   CO3-2           9.876e-05   8.692e-05    -4.005    -4.061    -0.055     -3.95
   CaCO3           1.515e-05   1.515e-05    -4.820    -4.820     0.000    -14.60
   MgCO3           8.717e-06   8.718e-06    -5.060    -5.060     0.000    -17.09
   CaHCO3+         1.906e-07   1.847e-07    -6.720    -6.734    -0.014      9.67
   MgHCO3+         1.772e-07   1.715e-07    -6.752    -6.766    -0.014      5.47
   CO2             2.359e-08   2.360e-08    -7.627    -7.627     0.000     34.43
   (CO2)2          1.022e-17   1.022e-17   -16.991   -16.990     0.000     68.87
Ca            1.335e-04
   Ca+2            1.179e-04   1.038e-04    -3.928    -3.984    -0.056    -18.15
   CaCO3           1.515e-05   1.515e-05    -4.820    -4.820     0.000    -14.60
   CaOH+           2.364e-07   2.289e-07    -6.626    -6.640    -0.014     (0)  
   CaHCO3+         1.906e-07   1.847e-07    -6.720    -6.734    -0.014      9.67
H(0)          1.518e-15
   H2              7.590e-16   7.592e-16   -15.120   -15.120     0.000     28.61
Mg            1.335e-04
   Mg+2            1.194e-04   1.051e-04    -3.923    -3.978    -0.055    -21.83
   MgCO3           8.717e-06   8.718e-06    -5.060    -5.060     0.000    -17.09
   MgOH+           5.235e-06   5.072e-06    -5.281    -5.295    -0.014     (0)  
   MgHCO3+         1.772e-07   1.715e-07    -6.752    -6.766    -0.014      5.47
O(0)          0.000e+00
   O2              0.000e+00   0.000e+00   -62.141   -62.141     0.000     30.40

------------------------------Saturation indices-------------------------------

  Phase               SI** log IAP   log K(298 K,   1 atm)

  Aragonite         0.29     -8.04   -8.34  CaCO3
  Calcite           0.44     -8.04   -8.48  CaCO3
  CH4(g)          -28.31    -31.12   -2.80  CH4
  CO2(g)           -6.16     -7.63   -1.47  CO2
  Dolomite          1.00    -16.08  -17.08  CaMg(CO3)2
  H2(g)           -12.02    -15.12   -3.10  H2
  H2O(g)           -1.50     -0.00    1.50  H2O
  O2(g)           -59.25    -62.14   -2.89  O2

**For a gas, SI = log10(fugacity). Fugacity = pressure * phi / 1 atm.
  For ideal gases, phi = 1.

------------------
End of simulation.
------------------

------------------------------------
Reading input data for simulation 4.
------------------------------------

	SOLUTION 1
	EQUILIBRIUM_PHASES 1
		Dolomite	-1.0	0.1 dissolve_only
	SAVE solution 3
	END
-------------------------------------------
Beginning of initial solution calculations.
-------------------------------------------

Initial solution 1.	

-----------------------------Solution composition------------------------------

	Elements           Molality       Moles

	Pure water     

----------------------------Description of solution----------------------------

                                       pH  =   7.000    
                                       pe  =   4.000    
      Specific Conductance (µS/cm,  25°C)  = 0
                          Density (g/cm³)  =   0.99704
                               Volume (L)  =   1.00297
                        Viscosity (mPa s)  =   0.89002
                        Activity of water  =   1.000
                 Ionic strength (mol/kgw)  =   1.007e-07
                       Mass of water (kg)  =   1.000e+00
                 Total alkalinity (eq/kg)  =   1.217e-09
                         Temperature (°C)  =  25.00
                  Electrical balance (eq)  =  -1.217e-09
 Percent error, 100*(Cat-|An|)/(Cat+|An|)  =  -0.60
                               Iterations  =   0
                                  Total H  = 1.110124e+02
                                  Total O  = 5.550622e+01

----------------------------Distribution of species----------------------------

                                               Log       Log       Log    mole V
   Species          Molality    Activity  Molality  Activity     Gamma   cm³/mol

   OH-             1.013e-07   1.012e-07    -6.995    -6.995    -0.000     -4.14
   H+              1.001e-07   1.000e-07    -7.000    -7.000    -0.000      0.00
   H2O             5.551e+01   1.000e+00     1.744     0.000     0.000     18.07
H(0)          1.416e-25
   H2              7.079e-26   7.079e-26   -25.150   -25.150     0.000     28.61
O(0)          0.000e+00
   O2              0.000e+00   0.000e+00   -42.080   -42.080     0.000     30.40

------------------------------Saturation indices-------------------------------

  Phase               SI** log IAP   log K(298 K,   1 atm)

  H2(g)           -22.05    -25.15   -3.10  H2
  H2O(g)           -1.50      0.00    1.50  H2O
  O2(g)           -39.19    -42.08   -2.89  O2

**For a gas, SI = log10(fugacity). Fugacity = pressure * phi / 1 atm.
  For ideal gases, phi = 1.

-----------------------------------------
Beginning of batch-reaction calculations.
-----------------------------------------

Reaction step 1.

Using solution 1.	
Using pure phase assemblage 1.	

-------------------------------Phase assemblage--------------------------------

                                                      Moles in assemblage
Phase               SI  log IAP  log K(T, P)   Initial       Final       Delta

Dolomite         -1.00   -18.08    -17.08    1.000e-01   9.995e-02  -4.771e-05

-----------------------------Solution composition------------------------------

	Elements           Molality       Moles

	C                 9.542e-05   9.542e-05
	Ca                4.771e-05   4.771e-05
	Mg                4.771e-05   4.771e-05

----------------------------Description of solution----------------------------

                                       pH  =   9.824      Charge balance
                                       pe  =  -3.839      Adjusted to redox equilibrium
      Specific Conductance (µS/cm,  25°C)  = 28
                          Density (g/cm³)  =   0.99705
                               Volume (L)  =   1.00296
                        Viscosity (mPa s)  =   0.89035
                        Activity of water  =   1.000
                 Ionic strength (mol/kgw)  =   2.999e-04
                       Mass of water (kg)  =   1.000e+00
                 Total alkalinity (eq/kg)  =   1.908e-04
                       Total CO2 (mol/kg)  =   9.542e-05
                         Temperature (°C)  =  25.00
                  Electrical balance (eq)  =  -1.217e-09
 Percent error, 100*(Cat-|An|)/(Cat+|An|)  =  -0.00
                               Iterations  =  16
                                  Total H  = 1.110124e+02
                                  Total O  = 5.550650e+01

----------------------------Distribution of species----------------------------

                                               Log       Log       Log    mole V
   Species          Molality    Activity  Molality  Activity     Gamma   cm³/mol

   OH-             6.882e-05   6.746e-05    -4.162    -4.171    -0.009     -4.12
   H+              1.530e-10   1.500e-10    -9.815    -9.824    -0.008      0.00
   H2O             5.551e+01   1.000e+00     1.744    -0.000     0.000     18.07
C(-4)         7.487e-32
   CH4             7.487e-32   7.487e-32   -31.126   -31.126     0.000     35.46
C(4)          9.542e-05
   HCO3-           6.979e-05   6.842e-05    -4.156    -4.165    -0.009     24.56
   CO3-2           2.314e-05   2.139e-05    -4.636    -4.670    -0.034     -3.99
   CaCO3           1.530e-06   1.530e-06    -5.815    -5.815     0.000    -14.60
   MgCO3           8.632e-07   8.633e-07    -6.064    -6.064     0.000    -17.09
   CaHCO3+         3.792e-08   3.718e-08    -7.421    -7.430    -0.009      9.66
   MgHCO3+         3.455e-08   3.387e-08    -7.462    -7.470    -0.009      5.46
   CO2             2.308e-08   2.308e-08    -7.637    -7.637     0.000     34.43
   (CO2)2          9.780e-18   9.780e-18   -17.010   -17.010     0.000     68.87
Ca            4.771e-05
   Ca+2            4.609e-05   4.259e-05    -4.336    -4.371    -0.034    -18.19
   CaCO3           1.530e-06   1.530e-06    -5.815    -5.815     0.000    -14.60
   CaOH+           4.806e-08   4.711e-08    -7.318    -7.327    -0.009     (0)  
   CaHCO3+         3.792e-08   3.718e-08    -7.421    -7.430    -0.009      9.66
H(0)          1.518e-15
   H2              7.589e-16   7.589e-16   -15.120   -15.120     0.000     28.61
Mg            4.771e-05
   Mg+2            4.577e-05   4.230e-05    -4.339    -4.374    -0.034    -21.87
   MgOH+           1.044e-06   1.024e-06    -5.981    -5.990    -0.009     (0)  
   MgCO3           8.632e-07   8.633e-07    -6.064    -6.064     0.000    -17.09
   MgHCO3+         3.455e-08   3.387e-08    -7.462    -7.470    -0.009      5.46
O(0)          0.000e+00
   O2              0.000e+00   0.000e+00   -62.140   -62.140     0.000     30.40

------------------------------Saturation indices-------------------------------

  Phase               SI** log IAP   log K(298 K,   1 atm)

  Aragonite        -0.70     -9.04   -8.34  CaCO3
  Calcite          -0.56     -9.04   -8.48  CaCO3
  CH4(g)          -28.32    -31.13   -2.80  CH4
  CO2(g)           -6.17     -7.64   -1.47  CO2
  Dolomite         -1.00    -18.08  -17.08  CaMg(CO3)2
  H2(g)           -12.02    -15.12   -3.10  H2
  H2O(g)           -1.50     -0.00    1.50  H2O
  O2(g)           -59.25    -62.14   -2.89  O2

**For a gas, SI = log10(fugacity). Fugacity = pressure * phi / 1 atm.
  For ideal gases, phi = 1.

------------------
End of simulation.
------------------

------------------------------------
Reading input data for simulation 5.
------------------------------------

	USE solution 2
	EQUILIBRIUM_PHASES 1
		Dolomite	0.0	0.1 dissolve_only
	END
-----------------------------------------
Beginning of batch-reaction calculations.
-----------------------------------------

Reaction step 1.

Using solution 2.	Solution after simulation 3.
Using pure phase assemblage 1.	

-------------------------------Phase assemblage--------------------------------

                                                      Moles in assemblage
Phase               SI  log IAP  log K(T, P)   Initial       Final       Delta

Dolomite          1.00   -16.08    -17.08    1.000e-01   1.000e-01   0.000e+00

-----------------------------Solution composition------------------------------

	Elements           Molality       Moles

	C                 2.670e-04   2.670e-04
	Ca                1.335e-04   1.335e-04
	Mg                1.335e-04   1.335e-04

----------------------------Description of solution----------------------------

                                       pH  =  10.123      Charge balance
                                       pe  =  -4.139      Adjusted to redox equilibrium
      Specific Conductance (µS/cm,  25°C)  = 67
                          Density (g/cm³)  =   0.99707
                               Volume (L)  =   1.00296
                        Viscosity (mPa s)  =   0.89066
                        Activity of water  =   1.000
                 Ionic strength (mol/kgw)  =   8.165e-04
                       Mass of water (kg)  =   1.000e+00
                 Total alkalinity (eq/kg)  =   5.340e-04
                       Total CO2 (mol/kg)  =   2.670e-04
                         Temperature (°C)  =  25.00
                  Electrical balance (eq)  =  -1.217e-09
 Percent error, 100*(Cat-|An|)/(Cat+|An|)  =  -0.00
                               Iterations  =   0
                                  Total H  = 1.110124e+02
                                  Total O  = 5.550702e+01

----------------------------Distribution of species----------------------------

                                               Log       Log       Log    mole V
   Species          Molality    Activity  Molality  Activity     Gamma   cm³/mol

   OH-             1.389e-04   1.345e-04    -3.857    -3.871    -0.014     -4.11
   H+              7.762e-11   7.525e-11   -10.110   -10.123    -0.013      0.00
   H2O             5.551e+01   1.000e+00     1.744    -0.000     0.000     18.07
C(-4)         7.665e-32
   CH4             7.665e-32   7.666e-32   -31.116   -31.115     0.000     35.46
C(4)          2.670e-04
   HCO3-           1.440e-04   1.395e-04    -3.842    -3.856    -0.014     24.58
   CO3-2           9.876e-05   8.692e-05    -4.005    -4.061    -0.055     -3.95
   CaCO3           1.515e-05   1.515e-05    -4.820    -4.820     0.000    -14.60
   MgCO3           8.717e-06   8.718e-06    -5.060    -5.060     0.000    -17.09
   CaHCO3+         1.906e-07   1.847e-07    -6.720    -6.734    -0.014      9.67
   MgHCO3+         1.772e-07   1.715e-07    -6.752    -6.766    -0.014      5.47
   CO2             2.359e-08   2.360e-08    -7.627    -7.627     0.000     34.43
   (CO2)2          1.022e-17   1.022e-17   -16.991   -16.990     0.000     68.87
Ca            1.335e-04
   Ca+2            1.179e-04   1.038e-04    -3.928    -3.984    -0.056    -18.15
   CaCO3           1.515e-05   1.515e-05    -4.820    -4.820     0.000    -14.60
   CaOH+           2.364e-07   2.289e-07    -6.626    -6.640    -0.014     (0)  
   CaHCO3+         1.906e-07   1.847e-07    -6.720    -6.734    -0.014      9.67
H(0)          1.518e-15
   H2              7.590e-16   7.592e-16   -15.120   -15.120     0.000     28.61
Mg            1.335e-04
   Mg+2            1.194e-04   1.051e-04    -3.923    -3.978    -0.055    -21.83
   MgCO3           8.717e-06   8.718e-06    -5.060    -5.060     0.000    -17.09
   MgOH+           5.235e-06   5.072e-06    -5.281    -5.295    -0.014     (0)  
   MgHCO3+         1.772e-07   1.715e-07    -6.752    -6.766    -0.014      5.47
O(0)          0.000e+00
   O2              0.000e+00   0.000e+00   -62.141   -62.141     0.000     30.40

------------------------------Saturation indices-------------------------------

  Phase               SI** log IAP   log K(298 K,   1 atm)

  Aragonite         0.29     -8.04   -8.34  CaCO3
  Calcite           0.44     -8.04   -8.48  CaCO3
  CH4(g)          -28.31    -31.12   -2.80  CH4
  CO2(g)           -6.16     -7.63   -1.47  CO2
  Dolomite          1.00    -16.08  -17.08  CaMg(CO3)2
  H2(g)           -12.02    -15.12   -3.10  H2
  H2O(g)           -1.50     -0.00    1.50  H2O
  O2(g)           -59.25    -62.14   -2.89  O2

**For a gas, SI = log10(fugacity). Fugacity = pressure * phi / 1 atm.
  For ideal gases, phi = 1.

------------------
End of simulation.
------------------

------------------------------------
Reading input data for simulation 6.
------------------------------------

	USE solution 2
	EQUILIBRIUM_PHASES 1
		Dolomite	0.0	0.1 dissolve_only
	REACTION
		HCl	1.0
		.5 moles in 5 steps
	END
-----------------------------------------
Beginning of batch-reaction calculations.
-----------------------------------------

Reaction step 1.

Using solution 2.	Solution after simulation 3.
Using pure phase assemblage 1.	
Using reaction 1.	

Reaction 1.	

	  1.000e-01 moles of the following reaction have been added:

	                 Relative
	Reactant            moles

	HCl                  1.00000

	                 Relative
	Element             moles
	Cl                   1.00000
	H                    1.00000

-------------------------------Phase assemblage--------------------------------

                                                      Moles in assemblage
Phase               SI  log IAP  log K(T, P)   Initial       Final       Delta

Dolomite          0.00   -17.08    -17.08    1.000e-01   7.067e-02  -2.933e-02

-----------------------------Solution composition------------------------------

	Elements           Molality       Moles

	C                 5.889e-02   5.893e-02
	Ca                2.944e-02   2.947e-02
	Cl                9.993e-02   1.000e-01
	Mg                2.944e-02   2.947e-02

----------------------------Description of solution----------------------------

                                       pH  =   5.767      Charge balance
                                       pe  =  12.461      Adjusted to redox equilibrium
      Specific Conductance (µS/cm,  25°C)  = 10813
                          Density (g/cm³)  =   1.00277
                               Volume (L)  =   1.00629
                        Viscosity (mPa s)  =   0.92602
                        Activity of water  =   0.996
                 Ionic strength (mol/kgw)  =   1.698e-01
                       Mass of water (kg)  =   1.001e+00
                 Total alkalinity (eq/kg)  =   1.785e-02
                       Total CO2 (mol/kg)  =   5.889e-02
                         Temperature (°C)  =  25.00
                  Electrical balance (eq)  =  -1.160e-09
 Percent error, 100*(Cat-|An|)/(Cat+|An|)  =  -0.00
                               Iterations  =  17
                                  Total H  = 1.111124e+02
                                  Total O  = 5.568301e+01

----------------------------Distribution of species----------------------------

                                               Log       Log       Log    mole V
   Species          Molality    Activity  Molality  Activity     Gamma   cm³/mol

   H+              2.126e-06   1.710e-06    -5.672    -5.767    -0.095      0.00
   OH-             8.191e-09   5.899e-09    -8.087    -8.229    -0.143     -3.56
   H2O             5.551e+01   9.964e-01     1.744    -0.002     0.000     18.07
C(-4)         0.000e+00
   CH4             0.000e+00   0.000e+00  -122.822  -122.805     0.017     35.46
C(4)          5.889e-02
   CO2             4.098e-02   4.205e-02    -1.387    -1.376     0.011     34.43
   HCO3-           1.442e-02   1.090e-02    -1.841    -1.963    -0.121     25.08
   MgHCO3+         1.725e-03   1.260e-03    -2.763    -2.900    -0.136      5.70
   CaHCO3+         1.695e-03   1.297e-03    -2.771    -2.887    -0.116      9.87
   (CO2)2          3.122e-05   3.246e-05    -4.506    -4.489     0.017     68.87
   CaCO3           4.506e-06   4.686e-06    -5.346    -5.329     0.017    -14.60
   MgCO3           2.711e-06   2.819e-06    -5.567    -5.550     0.017    -17.09
   CO3-2           9.148e-07   2.990e-07    -6.039    -6.524    -0.486     -2.38
Ca            2.944e-02
   Ca+2            2.774e-02   9.329e-03    -1.557    -2.030    -0.473    -17.27
   CaHCO3+         1.695e-03   1.297e-03    -2.771    -2.887    -0.116      9.87
   CaCO3           4.506e-06   4.686e-06    -5.346    -5.329     0.017    -14.60
   CaOH+           1.197e-09   9.023e-10    -8.922    -9.045    -0.123     (0)  
Cl            9.993e-02
   Cl-             9.993e-02   7.272e-02    -1.000    -1.138    -0.138     18.43
   HCl             3.626e-08   4.283e-08    -7.441    -7.368     0.072     (0)  
H(0)          4.771e-40
   H2              2.385e-40   2.480e-40   -39.622   -39.605     0.017     28.61
Mg            2.944e-02
   Mg+2            2.772e-02   9.881e-03    -1.557    -2.005    -0.448    -20.98
   MgHCO3+         1.725e-03   1.260e-03    -2.763    -2.900    -0.136      5.70
   MgCO3           2.711e-06   2.819e-06    -5.567    -5.550     0.017    -17.09
   MgOH+           2.705e-08   2.091e-08    -7.568    -7.680    -0.112     (0)  
O(0)          1.294e-13
   O2              6.468e-14   6.726e-14   -13.189   -13.172     0.017     30.40

------------------------------Saturation indices-------------------------------

  Phase               SI** log IAP   log K(298 K,   1 atm)

  Aragonite        -0.22     -8.55   -8.34  CaCO3
  Calcite          -0.07     -8.55   -8.48  CaCO3
  CH4(g)         -120.00   -122.80   -2.80  CH4
  CO2(g)            0.09     -1.38   -1.47  CO2
  Dolomite          0.00    -17.08  -17.08  CaMg(CO3)2
  H2(g)           -36.50    -39.61   -3.10  H2
  H2O(g)           -1.50     -0.00    1.50  H2O
  O2(g)           -10.28    -13.17   -2.89  O2

**For a gas, SI = log10(fugacity). Fugacity = pressure * phi / 1 atm.
  For ideal gases, phi = 1.

Reaction step 2.

Using solution 2.	Solution after simulation 3.
Using pure phase assemblage 1.	
Using reaction 1.	

Reaction 1.	

	  2.000e-01 moles of the following reaction have been added:

	                 Relative
	Reactant            moles

	HCl                  1.00000

	                 Relative
	Element             moles
	Cl                   1.00000
	H                    1.00000

-------------------------------Phase assemblage--------------------------------

                                                      Moles in assemblage
Phase               SI  log IAP  log K(T, P)   Initial       Final       Delta

Dolomite          0.00   -17.08    -17.08    1.000e-01   4.403e-02  -5.597e-02

-----------------------------Solution composition------------------------------

	Elements           Molality       Moles

	C                 1.120e-01   1.122e-01
	Ca                5.602e-02   5.611e-02
	Cl                1.997e-01   2.000e-01
	Mg                5.602e-02   5.611e-02

----------------------------Description of solution----------------------------

                                       pH  =   5.492      Charge balance
                                       pe  =  12.292      Adjusted to redox equilibrium
      Specific Conductance (µS/cm,  25°C)  = 19351
                          Density (g/cm³)  =   1.00777
                               Volume (L)  =   1.00980
                        Viscosity (mPa s)  =   0.94739
                        Activity of water  =   0.993
                 Ionic strength (mol/kgw)  =   3.224e-01
                       Mass of water (kg)  =   1.002e+00
                 Total alkalinity (eq/kg)  =   2.439e-02
                       Total CO2 (mol/kg)  =   1.120e-01
                         Temperature (°C)  =  25.00
                  Electrical balance (eq)  =  -1.217e-09
 Percent error, 100*(Cat-|An|)/(Cat+|An|)  =  -0.00
                               Iterations  =  17
                                  Total H  = 1.112124e+02
                                  Total O  = 5.584286e+01

----------------------------Distribution of species----------------------------

                                               Log       Log       Log    mole V
   Species          Molality    Activity  Molality  Activity     Gamma   cm³/mol

   H+              4.127e-06   3.218e-06    -5.384    -5.492    -0.108      0.00
   OH-             4.676e-09   3.123e-09    -8.330    -8.505    -0.175     -3.25
   H2O             5.551e+01   9.929e-01     1.744    -0.003     0.000     18.07
C(-4)         0.000e+00
   CH4             0.000e+00   0.000e+00  -118.948  -118.916     0.032     35.46
C(4)          1.120e-01
   CO2             8.736e-02   9.175e-02    -1.059    -1.037     0.021     34.43
   HCO3-           1.756e-02   1.259e-02    -1.756    -1.900    -0.144     25.37
   MgHCO3+         3.523e-03   2.405e-03    -2.453    -2.619    -0.166      5.75
   CaHCO3+         3.299e-03   2.408e-03    -2.482    -2.618    -0.137      9.91
   (CO2)2          1.435e-04   1.545e-04    -3.843    -3.811     0.032     68.87
   CaCO3           4.290e-06   4.621e-06    -5.367    -5.335     0.032    -14.60
   MgCO3           2.654e-06   2.859e-06    -5.576    -5.544     0.032    -17.09
   CO3-2           6.932e-07   1.835e-07    -6.159    -6.736    -0.577     -1.69
Ca            5.602e-02
   Ca+2            5.272e-02   1.499e-02    -1.278    -1.824    -0.546    -17.03
   CaHCO3+         3.299e-03   2.408e-03    -2.482    -2.618    -0.137      9.91
   CaCO3           4.290e-06   4.621e-06    -5.367    -5.335     0.032    -14.60
   CaOH+           1.048e-09   7.675e-10    -8.980    -9.115    -0.135     (0)  
Cl            1.997e-01
   Cl-             1.997e-01   1.359e-01    -0.700    -0.867    -0.167     18.57
   HCl             1.098e-07   1.506e-07    -6.959    -6.822     0.137     (0)  
H(0)          3.548e-39
   H2              1.774e-39   1.911e-39   -38.751   -38.719     0.032     28.61
Mg            5.602e-02
   Mg+2            5.249e-02   1.632e-02    -1.280    -1.787    -0.507    -20.75
   MgHCO3+         3.523e-03   2.405e-03    -2.453    -2.619    -0.166      5.75
   MgCO3           2.654e-06   2.859e-06    -5.576    -5.544     0.032    -17.09
   MgOH+           2.472e-08   1.829e-08    -7.607    -7.738    -0.131     (0)  
O(0)          2.090e-15
   O2              1.045e-15   1.126e-15   -14.981   -14.949     0.032     30.40

------------------------------Saturation indices-------------------------------

  Phase               SI** log IAP   log K(298 K,   1 atm)

  Aragonite        -0.22     -8.56   -8.34  CaCO3
  Calcite          -0.08     -8.56   -8.48  CaCO3
  CH4(g)         -116.11   -118.92   -2.80  CH4
  CO2(g)            0.43     -1.04   -1.47  CO2
  Dolomite          0.00    -17.08  -17.08  CaMg(CO3)2
  H2(g)           -35.62    -38.72   -3.10  H2
  H2O(g)           -1.51     -0.00    1.50  H2O
  O2(g)           -12.06    -14.95   -2.89  O2

**For a gas, SI = log10(fugacity). Fugacity = pressure * phi / 1 atm.
  For ideal gases, phi = 1.

Reaction step 3.

Using solution 2.	Solution after simulation 3.
Using pure phase assemblage 1.	
Using reaction 1.	

Reaction 1.	

	  3.000e-01 moles of the following reaction have been added:

	                 Relative
	Reactant            moles

	HCl                  1.00000

	                 Relative
	Element             moles
	Cl                   1.00000
	H                    1.00000

-------------------------------Phase assemblage--------------------------------

                                                      Moles in assemblage
Phase               SI  log IAP  log K(T, P)   Initial       Final       Delta

Dolomite          0.00   -17.08    -17.08    1.000e-01   1.768e-02  -8.232e-02

-----------------------------Solution composition------------------------------

	Elements           Molality       Moles

	C                 1.645e-01   1.649e-01
	Ca                8.225e-02   8.245e-02
	Cl                2.993e-01   3.000e-01
	Mg                8.225e-02   8.245e-02

----------------------------Description of solution----------------------------

                                       pH  =   5.327      Charge balance
                                       pe  =  12.732      Adjusted to redox equilibrium
      Specific Conductance (µS/cm,  25°C)  = 27154
                          Density (g/cm³)  =   1.01263
                               Volume (L)  =   1.01335
                        Viscosity (mPa s)  =   0.96662
                        Activity of water  =   0.990
                 Ionic strength (mol/kgw)  =   4.728e-01
                       Mass of water (kg)  =   1.002e+00
                 Total alkalinity (eq/kg)  =   2.973e-02
                       Total CO2 (mol/kg)  =   1.645e-01
                         Temperature (°C)  =  25.00
                  Electrical balance (eq)  =  -1.216e-09
 Percent error, 100*(Cat-|An|)/(Cat+|An|)  =  -0.00
                               Iterations  =  18
                                  Total H  = 1.113124e+02
                                  Total O  = 5.600092e+01

----------------------------Distribution of species----------------------------

                                               Log       Log       Log    mole V
   Species          Molality    Activity  Molality  Activity     Gamma   cm³/mol

   H+              6.149e-06   4.711e-06    -5.211    -5.327    -0.116      0.00
   OH-             3.337e-09   2.126e-09    -8.477    -8.672    -0.196     -2.97
   H2O             5.551e+01   9.895e-01     1.744    -0.005     0.000     18.07
C(-4)         0.000e+00
   CH4             0.000e+00   0.000e+00  -120.961  -120.914     0.047     35.46
C(4)          1.645e-01
   CO2             1.341e-01   1.441e-01    -0.873    -0.841     0.031     34.43
   HCO3-           1.936e-02   1.346e-02    -1.713    -1.871    -0.158     25.65
   MgHCO3+         5.443e-03   3.561e-03    -2.264    -2.448    -0.184      5.79
   CaHCO3+         4.913e-03   3.487e-03    -2.309    -2.458    -0.149      9.94
   (CO2)2          3.417e-04   3.810e-04    -3.466    -3.419     0.047     68.87
   CaCO3           4.098e-06   4.570e-06    -5.387    -5.340     0.047    -14.60
   MgCO3           2.593e-06   2.891e-06    -5.586    -5.539     0.047    -17.09
   CO3-2           5.741e-07   1.340e-07    -6.241    -6.873    -0.632     -1.14
Ca            8.225e-02
   Ca+2            7.733e-02   2.030e-02    -1.112    -1.692    -0.581    -16.87
   CaHCO3+         4.913e-03   3.487e-03    -2.309    -2.458    -0.149      9.94
   CaCO3           4.098e-06   4.570e-06    -5.387    -5.340     0.047    -14.60
   CaOH+           9.668e-10   7.077e-10    -9.015    -9.150    -0.135     (0)  
Cl            2.993e-01
   Cl-             2.993e-01   1.956e-01    -0.524    -0.709    -0.185     18.67
   HCl             1.998e-07   3.175e-07    -6.699    -6.498     0.201     (0)  
H(0)          9.679e-40
   H2              4.840e-40   5.396e-40   -39.315   -39.268     0.047     28.61
Mg            8.225e-02
   Mg+2            7.680e-02   2.261e-02    -1.115    -1.646    -0.531    -20.59
   MgHCO3+         5.443e-03   3.561e-03    -2.264    -2.448    -0.184      5.79
   MgCO3           2.593e-06   2.891e-06    -5.586    -5.539     0.047    -17.09
   MgOH+           2.392e-08   1.724e-08    -7.621    -7.763    -0.142     (0)  
O(0)          2.514e-14
   O2              1.257e-14   1.402e-14   -13.901   -13.853     0.047     30.40

------------------------------Saturation indices-------------------------------

  Phase               SI** log IAP   log K(298 K,   1 atm)

  Aragonite        -0.23     -8.57   -8.34  CaCO3
  Calcite          -0.09     -8.57   -8.48  CaCO3
  CH4(g)         -118.11   -120.91   -2.80  CH4
  CO2(g)            0.63     -0.84   -1.47  CO2
  Dolomite          0.00    -17.08  -17.08  CaMg(CO3)2
  H2(g)           -36.17    -39.27   -3.10  H2
  H2O(g)           -1.51     -0.00    1.50  H2O
  O2(g)           -10.96    -13.85   -2.89  O2

**For a gas, SI = log10(fugacity). Fugacity = pressure * phi / 1 atm.
  For ideal gases, phi = 1.

Reaction step 4.

Using solution 2.	Solution after simulation 3.
Using pure phase assemblage 1.	
Using reaction 1.	

Reaction 1.	

	  4.000e-01 moles of the following reaction have been added:

	                 Relative
	Reactant            moles

	HCl                  1.00000

	                 Relative
	Element             moles
	Cl                   1.00000
	H                    1.00000

-------------------------------Phase assemblage--------------------------------

                                                      Moles in assemblage
Phase               SI  log IAP  log K(T, P)   Initial       Final       Delta

Dolomite         -6.43   -23.51    -17.08    1.000e-01           0  -1.000e-01

-----------------------------Solution composition------------------------------

	Elements           Molality       Moles

	C                 1.996e-01   2.003e-01
	Ca                9.978e-02   1.001e-01
	Cl                3.986e-01   4.000e-01
	Mg                9.978e-02   1.001e-01

----------------------------Description of solution----------------------------

                                       pH  =   3.582      Charge balance
                                       pe  =  14.179      Adjusted to redox equilibrium
      Specific Conductance (µS/cm,  25°C)  = 33921
                          Density (g/cm³)  =   1.01555
                               Volume (L)  =   1.01723
                        Viscosity (mPa s)  =   0.96443
                        Activity of water  =   0.986
                 Ionic strength (mol/kgw)  =   5.983e-01
                       Mass of water (kg)  =   1.004e+00
                 Total alkalinity (eq/kg)  =   5.321e-04
                       Total CO2 (mol/kg)  =   1.996e-01
                         Temperature (°C)  =  25.00
                  Electrical balance (eq)  =  -1.217e-09
 Percent error, 100*(Cat-|An|)/(Cat+|An|)  =  -0.00
                               Iterations  =  18
                                  Total H  = 1.114124e+02
                                  Total O  = 5.610702e+01

----------------------------Distribution of species----------------------------

                                               Log       Log       Log    mole V
   Species          Molality    Activity  Molality  Activity     Gamma   cm³/mol

   H+              3.449e-04   2.616e-04    -3.462    -3.582    -0.120      0.00
   OH-             6.172e-11   3.816e-11   -10.210   -10.418    -0.209     -2.76
   H2O             5.551e+01   9.865e-01     1.744    -0.006     0.000     18.07
C(-4)         0.000e+00
   CH4             0.000e+00   0.000e+00  -118.416  -118.356     0.060     35.46
C(4)          1.996e-01
   CO2             1.972e-01   2.159e-01    -0.705    -0.666     0.039     34.43
   (CO2)2          7.457e-04   8.559e-04    -3.127    -3.068     0.060     68.87
   HCO3-           5.311e-04   3.621e-04    -3.275    -3.441    -0.166     25.86
   MgHCO3+         1.916e-04   1.221e-04    -3.718    -3.913    -0.196      5.81
   CaHCO3+         1.671e-04   1.166e-04    -3.777    -3.933    -0.156      9.95
   CaCO3           2.398e-09   2.752e-09    -8.620    -8.560     0.060    -14.60
   MgCO3           1.555e-09   1.785e-09    -8.808    -8.748     0.060    -17.09
   CO3-2           3.003e-10   6.491e-11    -9.522   -10.188    -0.665     -0.74
Ca            9.978e-02
   Ca+2            9.961e-02   2.523e-02    -1.002    -1.598    -0.596    -16.76
   CaHCO3+         1.671e-04   1.166e-04    -3.777    -3.933    -0.156      9.95
   CaCO3           2.398e-09   2.752e-09    -8.620    -8.560     0.060    -14.60
   CaOH+           2.134e-11   1.579e-11   -10.671   -10.802    -0.131     (0)  
Cl            3.986e-01
   Cl-             3.986e-01   2.544e-01    -0.400    -0.595    -0.195     18.75
   HCl             1.275e-05   2.292e-05    -4.894    -4.640     0.255     (0)  
H(0)          3.698e-39
   H2              1.849e-39   2.122e-39   -38.733   -38.673     0.060     28.61
Mg            9.978e-02
   Mg+2            9.958e-02   2.882e-02    -1.002    -1.540    -0.539    -20.47
   MgHCO3+         1.916e-04   1.221e-04    -3.718    -3.913    -0.196      5.81
   MgCO3           1.555e-09   1.785e-09    -8.808    -8.748     0.060    -17.09
   MgOH+           5.557e-10   3.945e-10    -9.255    -9.404    -0.149     (0)  
O(0)          1.570e-15
   O2              7.848e-16   9.007e-16   -15.105   -15.045     0.060     30.40

------------------------------Saturation indices-------------------------------

  Phase               SI** log IAP   log K(298 K,   1 atm)

  Aragonite        -3.45    -11.79   -8.34  CaCO3
  Calcite          -3.31    -11.79   -8.48  CaCO3
  CH4(g)         -115.55   -118.36   -2.80  CH4
  CO2(g)            0.80     -0.67   -1.47  CO2
  Dolomite         -6.43    -23.51  -17.08  CaMg(CO3)2
  H2(g)           -35.57    -38.67   -3.10  H2
  H2O(g)           -1.51     -0.01    1.50  H2O
  O2(g)           -12.15    -15.05   -2.89  O2

**For a gas, SI = log10(fugacity). Fugacity = pressure * phi / 1 atm.
  For ideal gases, phi = 1.

Reaction step 5.

Using solution 2.	Solution after simulation 3.
Using pure phase assemblage 1.	
Using reaction 1.	

Reaction 1.	

	  5.000e-01 moles of the following reaction have been added:

	                 Relative
	Reactant            moles

	HCl                  1.00000

	                 Relative
	Element             moles
	Cl                   1.00000
	H                    1.00000

-------------------------------Phase assemblage--------------------------------

                                                      Moles in assemblage
Phase               SI  log IAP  log K(T, P)   Initial       Final       Delta

Dolomite        -16.18   -33.26    -17.08    1.000e-01           0  -1.000e-01

-----------------------------Solution composition------------------------------

	Elements           Molality       Moles

	C                 1.995e-01   2.003e-01
	Ca                9.977e-02   1.001e-01
	Cl                4.982e-01   5.000e-01
	Mg                9.977e-02   1.001e-01

----------------------------Description of solution----------------------------

                                       pH  =   1.144      Charge balance
                                       pe  =  16.698      Adjusted to redox equilibrium
      Specific Conductance (µS/cm,  25°C)  = 54057
                          Density (g/cm³)  =   1.01727
                               Volume (L)  =   1.01909
                        Viscosity (mPa s)  =   0.96762
                        Activity of water  =   0.983
                 Ionic strength (mol/kgw)  =   6.939e-01
                       Mass of water (kg)  =   1.004e+00
                 Total alkalinity (eq/kg)  =  -9.911e-02
                       Total CO2 (mol/kg)  =   1.995e-01
                         Temperature (°C)  =  25.00
                  Electrical balance (eq)  =  -1.217e-09
 Percent error, 100*(Cat-|An|)/(Cat+|An|)  =  -0.00
                               Iterations  =  20
                                  Total H  = 1.115124e+02
                                  Total O  = 5.610702e+01

----------------------------Distribution of species----------------------------

                                               Log       Log       Log    mole V
   Species          Molality    Activity  Molality  Activity     Gamma   cm³/mol

   H+              9.522e-02   7.178e-02    -1.021    -1.144    -0.123      0.00
   OH-             2.285e-13   1.386e-13   -12.641   -12.858    -0.217     -2.60
   H2O             5.551e+01   9.831e-01     1.744    -0.007     0.000     18.07
C(-4)         0.000e+00
   CH4             0.000e+00   0.000e+00  -119.057  -118.987     0.069     35.46
C(4)          1.995e-01
   CO2             1.980e-01   2.201e-01    -0.703    -0.657     0.046     34.43
   (CO2)2          7.576e-04   8.888e-04    -3.121    -3.051     0.069     68.87
   HCO3-           1.989e-06   1.340e-06    -5.701    -5.873    -0.171     26.03
   MgHCO3+         7.206e-07   4.517e-07    -6.142    -6.345    -0.203      5.82
   CaHCO3+         6.163e-07   4.256e-07    -6.210    -6.371    -0.161      9.96
   CaCO3           3.120e-14   3.661e-14   -13.506   -13.436     0.069    -14.60
   MgCO3           2.051e-14   2.407e-14   -13.688   -13.619     0.069    -17.09
   CO3-2           4.249e-15   8.758e-16   -14.372   -15.058    -0.686     -0.45
Ca            9.977e-02
   Ca+2            9.977e-02   2.488e-02    -1.001    -1.604    -0.603    -16.68
   CaHCO3+         6.163e-07   4.256e-07    -6.210    -6.371    -0.161      9.96
   CaOH+           7.553e-14   5.656e-14   -13.122   -13.248    -0.126     (0)  
   CaCO3           3.120e-14   3.661e-14   -13.506   -13.436     0.069    -14.60
Cl            4.982e-01
   Cl-             4.943e-01   3.109e-01    -0.306    -0.507    -0.201     18.80
   HCl             3.895e-03   7.689e-03    -2.409    -2.114     0.295     (0)  
H(0)          2.500e-39
   H2              1.250e-39   1.466e-39   -38.903   -38.834     0.069     28.61
Mg            9.977e-02
   Mg+2            9.977e-02   2.880e-02    -1.001    -1.541    -0.540    -20.40
   MgHCO3+         7.206e-07   4.517e-07    -6.142    -6.345    -0.203      5.82
   MgOH+           2.036e-12   1.432e-12   -11.691   -11.844    -0.153     (0)  
   MgCO3           2.051e-14   2.407e-14   -13.688   -13.619     0.069    -17.09
O(0)          3.194e-15
   O2              1.597e-15   1.874e-15   -14.797   -14.727     0.069     30.40

------------------------------Saturation indices-------------------------------

  Phase               SI** log IAP   log K(298 K,   1 atm)

  Aragonite        -8.33    -16.66   -8.34  CaCO3
  Calcite          -8.18    -16.66   -8.48  CaCO3
  CH4(g)         -116.19   -118.99   -2.80  CH4
  CO2(g)            0.81     -0.66   -1.47  CO2
  Dolomite        -16.18    -33.26  -17.08  CaMg(CO3)2
  H2(g)           -35.73    -38.83   -3.10  H2
  H2O(g)           -1.51     -0.01    1.50  H2O
  O2(g)           -11.83    -14.73   -2.89  O2

**For a gas, SI = log10(fugacity). Fugacity = pressure * phi / 1 atm.
  For ideal gases, phi = 1.

------------------
End of simulation.
------------------

------------------------------------
Reading input data for simulation 7.
------------------------------------

	USE solution 3
	EQUILIBRIUM_PHASES 1
		Dolomite	0.0	.00001 dissolve_only
	REACTION
		CaMg(CO3)2	1.0
		.000040  moles in 8 steps
	END
-----------------------------------------
Beginning of batch-reaction calculations.
-----------------------------------------

Reaction step 1.

Using solution 3.	Solution after simulation 4.
Using pure phase assemblage 1.	
Using reaction 1.	

Reaction 1.	

	  5.000e-06 moles of the following reaction have been added:

	                 Relative
	Reactant            moles

	CaMg(CO3)2           1.00000

	                 Relative
	Element             moles
	C                    2.00000
	Ca                   1.00000
	Mg                   1.00000
	O                    6.00000

-------------------------------Phase assemblage--------------------------------

                                                      Moles in assemblage
Phase               SI  log IAP  log K(T, P)   Initial       Final       Delta

Dolomite         -0.44   -17.52    -17.08    1.000e-05           0  -1.000e-05

-----------------------------Solution composition------------------------------

	Elements           Molality       Moles

	C                 1.254e-04   1.254e-04
	Ca                6.271e-05   6.271e-05
	Mg                6.271e-05   6.271e-05

----------------------------Description of solution----------------------------

                                       pH  =   9.910      Charge balance
                                       pe  =   8.086      Adjusted to redox equilibrium
      Specific Conductance (µS/cm,  25°C)  = 35
                          Density (g/cm³)  =   0.99706
                               Volume (L)  =   1.00296
                        Viscosity (mPa s)  =   0.89042
                        Activity of water  =   1.000
                 Ionic strength (mol/kgw)  =   3.938e-04
                       Mass of water (kg)  =   1.000e+00
                 Total alkalinity (eq/kg)  =   2.508e-04
                       Total CO2 (mol/kg)  =   1.254e-04
                         Temperature (°C)  =  25.00
                  Electrical balance (eq)  =  -1.217e-09
 Percent error, 100*(Cat-|An|)/(Cat+|An|)  =  -0.00
                               Iterations  =  13
                                  Total H  = 1.110124e+02
                                  Total O  = 5.550659e+01

----------------------------Distribution of species----------------------------

                                               Log       Log       Log    mole V
   Species          Molality    Activity  Molality  Activity     Gamma   cm³/mol

   OH-             8.418e-05   8.228e-05    -4.075    -4.085    -0.010     -4.12
   H+              1.257e-10   1.230e-10    -9.901    -9.910    -0.010      0.00
   H2O             5.551e+01   1.000e+00     1.744    -0.000     0.000     18.07
C(-4)         0.000e+00
   CH4             0.000e+00   0.000e+00  -127.209  -127.209     0.000     35.46
C(4)          1.254e-04
   HCO3-           8.573e-05   8.382e-05    -4.067    -4.077    -0.010     24.57
   CO3-2           3.497e-05   3.196e-05    -4.456    -4.495    -0.039     -3.98
   CaCO3           2.926e-06   2.926e-06    -5.534    -5.534     0.000    -14.60
   MgCO3           1.655e-06   1.655e-06    -5.781    -5.781     0.000    -17.09
   CaHCO3+         5.962e-08   5.829e-08    -7.225    -7.234    -0.010      9.66
   MgHCO3+         5.444e-08   5.322e-08    -7.264    -7.274    -0.010      5.47
   CO2             2.318e-08   2.318e-08    -7.635    -7.635     0.000     34.43
   (CO2)2          9.864e-18   9.865e-18   -17.006   -17.006     0.000     68.87
Ca            6.271e-05
   Ca+2            5.965e-05   5.451e-05    -4.224    -4.264    -0.039    -18.18
   CaCO3           2.926e-06   2.926e-06    -5.534    -5.534     0.000    -14.60
   CaOH+           7.523e-08   7.354e-08    -7.124    -7.133    -0.010     (0)  
   CaHCO3+         5.962e-08   5.829e-08    -7.225    -7.234    -0.010      9.66
H(0)          1.445e-39
   H2              7.225e-40   7.225e-40   -39.141   -39.141     0.000     28.61
Mg            6.271e-05
   Mg+2            5.936e-05   5.426e-05    -4.226    -4.265    -0.039    -21.86
   MgCO3           1.655e-06   1.655e-06    -5.781    -5.781     0.000    -17.09
   MgOH+           1.638e-06   1.602e-06    -5.786    -5.795    -0.010     (0)  
   MgHCO3+         5.444e-08   5.322e-08    -7.264    -7.274    -0.010      5.47
O(0)          1.597e-14
   O2              7.984e-15   7.985e-15   -14.098   -14.098     0.000     30.40

------------------------------Saturation indices-------------------------------

  Phase               SI** log IAP   log K(298 K,   1 atm)

  Aragonite        -0.42     -8.76   -8.34  CaCO3
  Calcite          -0.28     -8.76   -8.48  CaCO3
  CH4(g)         -124.41   -127.21   -2.80  CH4
  CO2(g)           -6.17     -7.63   -1.47  CO2
  Dolomite         -0.44    -17.52  -17.08  CaMg(CO3)2
  H2(g)           -36.04    -39.14   -3.10  H2
  H2O(g)           -1.50     -0.00    1.50  H2O
  O2(g)           -11.21    -14.10   -2.89  O2

**For a gas, SI = log10(fugacity). Fugacity = pressure * phi / 1 atm.
  For ideal gases, phi = 1.

Reaction step 2.

Using solution 3.	Solution after simulation 4.
Using pure phase assemblage 1.	
Using reaction 1.	

Reaction 1.	

	  1.000e-05 moles of the following reaction have been added:

	                 Relative
	Reactant            moles

	CaMg(CO3)2           1.00000

	                 Relative
	Element             moles
	C                    2.00000
	Ca                   1.00000
	Mg                   1.00000
	O                    6.00000

-------------------------------Phase assemblage--------------------------------

                                                      Moles in assemblage
Phase               SI  log IAP  log K(T, P)   Initial       Final       Delta

Dolomite         -0.28   -17.37    -17.08    1.000e-05           0  -1.000e-05

-----------------------------Solution composition------------------------------

	Elements           Molality       Moles

	C                 1.354e-04   1.354e-04
	Ca                6.771e-05   6.771e-05
	Mg                6.771e-05   6.771e-05

----------------------------Description of solution----------------------------

                                       pH  =   9.933      Charge balance
                                       pe  =  -4.275      Adjusted to redox equilibrium
      Specific Conductance (µS/cm,  25°C)  = 38
                          Density (g/cm³)  =   0.99706
                               Volume (L)  =   1.00296
                        Viscosity (mPa s)  =   0.89044
                        Activity of water  =   1.000
                 Ionic strength (mol/kgw)  =   4.248e-04
                       Mass of water (kg)  =   1.000e+00
                 Total alkalinity (eq/kg)  =   2.708e-04
                       Total CO2 (mol/kg)  =   1.354e-04
                         Temperature (°C)  =  25.00
                  Electrical balance (eq)  =  -1.217e-09
 Percent error, 100*(Cat-|An|)/(Cat+|An|)  =  -0.00
                               Iterations  =   4
                                  Total H  = 1.110124e+02
                                  Total O  = 5.550662e+01

----------------------------Distribution of species----------------------------

                                               Log       Log       Log    mole V
   Species          Molality    Activity  Molality  Activity     Gamma   cm³/mol

   OH-             8.891e-05   8.683e-05    -4.051    -4.061    -0.010     -4.12
   H+              1.193e-10   1.166e-10    -9.924    -9.933    -0.010      0.00
   H2O             5.551e+01   1.000e+00     1.744    -0.000     0.000     18.07
C(-4)         3.099e-29
   CH4             3.099e-29   3.099e-29   -28.509   -28.509     0.000     35.46
C(4)          1.354e-04
   HCO3-           9.067e-05   8.858e-05    -4.043    -4.053    -0.010     24.57
   CO3-2           3.913e-05   3.564e-05    -4.408    -4.448    -0.041     -3.98
   CaCO3           3.493e-06   3.493e-06    -5.457    -5.457     0.000    -14.60
   MgCO3           1.977e-06   1.977e-06    -5.704    -5.704     0.000    -17.09
   CaHCO3+         6.749e-08   6.594e-08    -7.171    -7.181    -0.010      9.66
   MgHCO3+         6.170e-08   6.026e-08    -7.210    -7.220    -0.010      5.47
   CO2             2.321e-08   2.321e-08    -7.634    -7.634     0.000     34.43
   (CO2)2          9.891e-18   9.892e-18   -17.005   -17.005     0.000     68.87
Ca            6.771e-05
   Ca+2            6.406e-05   5.835e-05    -4.193    -4.234    -0.041    -18.18
   CaCO3           3.493e-06   3.493e-06    -5.457    -5.457     0.000    -14.60
   CaOH+           8.505e-08   8.307e-08    -7.070    -7.081    -0.010     (0)  
   CaHCO3+         6.749e-08   6.594e-08    -7.171    -7.181    -0.010      9.66
H(0)          6.836e-15
   H2              3.418e-15   3.418e-15   -14.466   -14.466     0.000     28.61
Mg            6.771e-05
   Mg+2            6.382e-05   5.814e-05    -4.195    -4.236    -0.040    -21.86
   MgCO3           1.977e-06   1.977e-06    -5.704    -5.704     0.000    -17.09
   MgOH+           1.853e-06   1.811e-06    -5.732    -5.742    -0.010     (0)  
   MgHCO3+         6.170e-08   6.026e-08    -7.210    -7.220    -0.010      5.47
O(0)          0.000e+00
   O2              0.000e+00   0.000e+00   -63.448   -63.448     0.000     30.40

------------------------------Saturation indices-------------------------------

  Phase               SI** log IAP   log K(298 K,   1 atm)

  Aragonite        -0.35     -8.68   -8.34  CaCO3
  Calcite          -0.20     -8.68   -8.48  CaCO3
  CH4(g)          -25.71    -28.51   -2.80  CH4
  CO2(g)           -6.17     -7.63   -1.47  CO2
  Dolomite         -0.28    -17.37  -17.08  CaMg(CO3)2
  H2(g)           -11.37    -14.47   -3.10  H2
  H2O(g)           -1.50     -0.00    1.50  H2O
  O2(g)           -60.56    -63.45   -2.89  O2

**For a gas, SI = log10(fugacity). Fugacity = pressure * phi / 1 atm.
  For ideal gases, phi = 1.

Reaction step 3.

Using solution 3.	Solution after simulation 4.
Using pure phase assemblage 1.	
Using reaction 1.	

Reaction 1.	

	  1.500e-05 moles of the following reaction have been added:

	                 Relative
	Reactant            moles

	CaMg(CO3)2           1.00000

	                 Relative
	Element             moles
	C                    2.00000
	Ca                   1.00000
	Mg                   1.00000
	O                    6.00000

-------------------------------Phase assemblage--------------------------------

                                                      Moles in assemblage
Phase               SI  log IAP  log K(T, P)   Initial       Final       Delta

Dolomite         -0.14   -17.22    -17.08    1.000e-05           0  -1.000e-05

-----------------------------Solution composition------------------------------

	Elements           Molality       Moles

	C                 1.454e-04   1.454e-04
	Ca                7.271e-05   7.271e-05
	Mg                7.271e-05   7.271e-05

----------------------------Description of solution----------------------------

                                       pH  =   9.955      Charge balance
                                       pe  =  -3.986      Adjusted to redox equilibrium
      Specific Conductance (µS/cm,  25°C)  = 40
                          Density (g/cm³)  =   0.99706
                               Volume (L)  =   1.00296
                        Viscosity (mPa s)  =   0.89046
                        Activity of water  =   1.000
                 Ionic strength (mol/kgw)  =   4.557e-04
                       Mass of water (kg)  =   1.000e+00
                 Total alkalinity (eq/kg)  =   2.908e-04
                       Total CO2 (mol/kg)  =   1.454e-04
                         Temperature (°C)  =  25.00
                  Electrical balance (eq)  =  -1.217e-09
 Percent error, 100*(Cat-|An|)/(Cat+|An|)  =  -0.00
                               Iterations  =   4
                                  Total H  = 1.110124e+02
                                  Total O  = 5.550665e+01

----------------------------Distribution of species----------------------------

                                               Log       Log       Log    mole V
   Species          Molality    Activity  Molality  Activity     Gamma   cm³/mol

   OH-             9.347e-05   9.121e-05    -4.029    -4.040    -0.011     -4.12
   H+              1.136e-10   1.110e-10    -9.945    -9.955    -0.010      0.00
   H2O             5.551e+01   1.000e+00     1.744    -0.000     0.000     18.07
C(-4)         1.012e-31
   CH4             1.012e-31   1.012e-31   -30.995   -30.995     0.000     35.46
C(4)          1.454e-04
   HCO3-           9.545e-05   9.317e-05    -4.020    -4.031    -0.010     24.57
   CO3-2           4.337e-05   3.937e-05    -4.363    -4.405    -0.042     -3.97
   CaCO3           4.109e-06   4.109e-06    -5.386    -5.386     0.000    -14.60
   MgCO3           2.328e-06   2.328e-06    -5.633    -5.633     0.000    -17.09
   CaHCO3+         7.564e-08   7.384e-08    -7.121    -7.132    -0.010      9.66
   MgHCO3+         6.922e-08   6.756e-08    -7.160    -7.170    -0.011      5.47
   CO2             2.324e-08   2.325e-08    -7.634    -7.634     0.000     34.43
   (CO2)2          9.918e-18   9.919e-18   -17.004   -17.004     0.000     68.87
Ca            7.271e-05
   Ca+2            6.843e-05   6.212e-05    -4.165    -4.207    -0.042    -18.18
   CaCO3           4.109e-06   4.109e-06    -5.386    -5.386     0.000    -14.60
   CaOH+           9.520e-08   9.290e-08    -7.021    -7.032    -0.011     (0)  
   CaHCO3+         7.564e-08   7.384e-08    -7.121    -7.132    -0.010      9.66
H(0)          1.633e-15
   H2              8.167e-16   8.168e-16   -15.088   -15.088     0.000     28.61
Mg            7.271e-05
   Mg+2            6.824e-05   6.197e-05    -4.166    -4.208    -0.042    -21.86
   MgCO3           2.328e-06   2.328e-06    -5.633    -5.633     0.000    -17.09
   MgOH+           2.077e-06   2.027e-06    -5.683    -5.693    -0.010     (0)  
   MgHCO3+         6.922e-08   6.756e-08    -7.160    -7.170    -0.011      5.47
O(0)          0.000e+00
   O2              0.000e+00   0.000e+00   -62.204   -62.204     0.000     30.40

------------------------------Saturation indices-------------------------------

  Phase               SI** log IAP   log K(298 K,   1 atm)

  Aragonite        -0.28     -8.61   -8.34  CaCO3
  Calcite          -0.13     -8.61   -8.48  CaCO3
  CH4(g)          -28.19    -30.99   -2.80  CH4
  CO2(g)           -6.17     -7.63   -1.47  CO2
  Dolomite         -0.14    -17.22  -17.08  CaMg(CO3)2
  H2(g)           -11.99    -15.09   -3.10  H2
  H2O(g)           -1.50     -0.00    1.50  H2O
  O2(g)           -59.31    -62.20   -2.89  O2

**For a gas, SI = log10(fugacity). Fugacity = pressure * phi / 1 atm.
  For ideal gases, phi = 1.

Reaction step 4.

Using solution 3.	Solution after simulation 4.
Using pure phase assemblage 1.	
Using reaction 1.	

Reaction 1.	

	  2.000e-05 moles of the following reaction have been added:

	                 Relative
	Reactant            moles

	CaMg(CO3)2           1.00000

	                 Relative
	Element             moles
	C                    2.00000
	Ca                   1.00000
	Mg                   1.00000
	O                    6.00000

-------------------------------Phase assemblage--------------------------------

                                                      Moles in assemblage
Phase               SI  log IAP  log K(T, P)   Initial       Final       Delta

Dolomite         -0.01   -17.09    -17.08    1.000e-05           0  -1.000e-05

-----------------------------Solution composition------------------------------

	Elements           Molality       Moles

	C                 1.554e-04   1.554e-04
	Ca                7.771e-05   7.771e-05
	Mg                7.771e-05   7.771e-05

----------------------------Description of solution----------------------------

                                       pH  =   9.974      Charge balance
                                       pe  =   8.169      Adjusted to redox equilibrium
      Specific Conductance (µS/cm,  25°C)  = 43
                          Density (g/cm³)  =   0.99706
                               Volume (L)  =   1.00296
                        Viscosity (mPa s)  =   0.89048
                        Activity of water  =   1.000
                 Ionic strength (mol/kgw)  =   4.864e-04
                       Mass of water (kg)  =   1.000e+00
                 Total alkalinity (eq/kg)  =   3.108e-04
                       Total CO2 (mol/kg)  =   1.554e-04
                         Temperature (°C)  =  25.00
                  Electrical balance (eq)  =  -1.218e-09
 Percent error, 100*(Cat-|An|)/(Cat+|An|)  =  -0.00
                               Iterations  =  12
                                  Total H  = 1.110124e+02
                                  Total O  = 5.550668e+01

----------------------------Distribution of species----------------------------

                                               Log       Log       Log    mole V
   Species          Molality    Activity  Molality  Activity     Gamma   cm³/mol

   OH-             9.787e-05   9.543e-05    -4.009    -4.020    -0.011     -4.12
   H+              1.087e-10   1.061e-10    -9.964    -9.974    -0.011      0.00
   H2O             5.551e+01   1.000e+00     1.744    -0.000     0.000     18.07
C(-4)         0.000e+00
   CH4             0.000e+00   0.000e+00  -128.393  -128.393     0.000     35.46
C(4)          1.554e-04
   HCO3-           1.001e-04   9.761e-05    -4.000    -4.011    -0.011     24.57
   CO3-2           4.768e-05   4.316e-05    -4.322    -4.365    -0.043     -3.97
   CaCO3           4.773e-06   4.773e-06    -5.321    -5.321     0.000    -14.60
   MgCO3           2.707e-06   2.708e-06    -5.567    -5.567     0.000    -17.09
   CaHCO3+         8.405e-08   8.199e-08    -7.075    -7.086    -0.011      9.66
   MgHCO3+         7.700e-08   7.509e-08    -7.113    -7.124    -0.011      5.47
   CO2             2.328e-08   2.328e-08    -7.633    -7.633     0.000     34.43
   (CO2)2          9.944e-18   9.945e-18   -17.002   -17.002     0.000     68.87
Ca            7.771e-05
   Ca+2            7.275e-05   6.584e-05    -4.138    -4.182    -0.043    -18.17
   CaCO3           4.773e-06   4.773e-06    -5.321    -5.321     0.000    -14.60
   CaOH+           1.056e-07   1.030e-07    -6.976    -6.987    -0.011     (0)  
   CaHCO3+         8.405e-08   8.199e-08    -7.075    -7.086    -0.011      9.66
H(0)          7.303e-40
   H2              3.651e-40   3.652e-40   -39.438   -39.438     0.000     28.61
Mg            7.771e-05
   Mg+2            7.262e-05   6.575e-05    -4.139    -4.182    -0.043    -21.86
   MgCO3           2.707e-06   2.708e-06    -5.567    -5.567     0.000    -17.09
   MgOH+           2.307e-06   2.251e-06    -5.637    -5.648    -0.011     (0)  
   MgHCO3+         7.700e-08   7.509e-08    -7.113    -7.124    -0.011      5.47
O(0)          6.251e-14
   O2              3.126e-14   3.126e-14   -13.505   -13.505     0.000     30.40

------------------------------Saturation indices-------------------------------

  Phase               SI** log IAP   log K(298 K,   1 atm)

  Aragonite        -0.21     -8.55   -8.34  CaCO3
  Calcite          -0.07     -8.55   -8.48  CaCO3
  CH4(g)         -125.59   -128.39   -2.80  CH4
  CO2(g)           -6.16     -7.63   -1.47  CO2
  Dolomite         -0.01    -17.09  -17.08  CaMg(CO3)2
  H2(g)           -36.34    -39.44   -3.10  H2
  H2O(g)           -1.50     -0.00    1.50  H2O
  O2(g)           -10.61    -13.51   -2.89  O2

**For a gas, SI = log10(fugacity). Fugacity = pressure * phi / 1 atm.
  For ideal gases, phi = 1.

[...]
                                       pe  =   4.538      Adjusted to redox equilibrium
      Specific Conductance (µS/cm,  25°C)  = 41465
                          Density (g/cm³)  =   1.00597
                               Volume (L)  =   1.00208
                        Viscosity (mPa s)  =   0.92743
                        Activity of water  =   0.993
                 Ionic strength (mol/kgw)  =   2.016e-01
                       Mass of water (kg)  =   1.000e+00
                 Total alkalinity (eq/kg)  =   2.013e-01
                       Total CO2 (mol/kg)  =   6.365e-04
                         Temperature (°C)  =  25.00
                  Electrical balance (eq)  =  -1.217e-09
 Percent error, 100*(Cat-|An|)/(Cat+|An|)  =  -0.00
                               Iterations  =  16
                                  Total H  = 1.112124e+02
                                  Total O  = 5.570813e+01

----------------------------Distribution of species----------------------------

                                               Log       Log       Log    mole V
   Species          Molality    Activity  Molality  Activity     Gamma   cm³/mol

   OH-             1.995e-01   1.409e-01    -0.700    -0.851    -0.151     -3.49
   H+              8.947e-14   7.133e-14   -13.048   -13.147    -0.098      0.00
   H2O             5.551e+01   9.932e-01     1.744    -0.003     0.000     18.07
C(-4)         0.000e+00
   CH4             0.000e+00   0.000e+00  -130.430  -130.410     0.020     35.46
C(4)          6.365e-04
   CO3-2           6.203e-04   1.917e-04    -3.207    -3.717    -0.510     -2.21
   CaCO3           1.500e-05   1.571e-05    -4.824    -4.804     0.020    -14.60
   MgCO3           8.025e-07   8.406e-07    -6.096    -6.075     0.020    -17.09
   HCO3-           3.911e-07   2.916e-07    -6.408    -6.535    -0.127     25.14
   NaHCO3          3.460e-08   3.797e-08    -7.461    -7.421     0.040     31.73
   CaHCO3+         2.401e-10   1.815e-10    -9.620    -9.741    -0.121      9.88
   MgHCO3+         2.184e-11   1.568e-11   -10.661   -10.805    -0.144      5.71
   CO2             4.567e-14   4.709e-14   -13.340   -13.327     0.013     34.43
   (CO2)2          3.885e-29   4.070e-29   -28.411   -28.390     0.020     68.87
Ca            3.182e-04
   Ca+2            1.521e-04   4.879e-05    -3.818    -4.312    -0.494    -17.21
   CaOH+           1.511e-04   1.127e-04    -3.821    -3.948    -0.127     (0)  
   CaCO3           1.500e-05   1.571e-05    -4.824    -4.804     0.020    -14.60
   CaHCO3+         2.401e-10   1.815e-10    -9.620    -9.741    -0.121      9.88
H(0)          5.769e-39
   H2              2.885e-39   3.022e-39   -38.540   -38.520     0.020     28.61
Mg            3.182e-04
   MgOH+           3.040e-04   2.323e-04    -3.517    -3.634    -0.117     (0)  
   Mg+2            1.342e-05   4.595e-06    -4.872    -5.338    -0.465    -20.92
   MgCO3           8.025e-07   8.406e-07    -6.096    -6.075     0.020    -17.09
   MgHCO3+         2.184e-11   1.568e-11   -10.661   -10.805    -0.144      5.71
Na            2.000e-01
   Na+             2.000e-01   1.495e-01    -0.699    -0.825    -0.126     -0.93
   NaHCO3          3.460e-08   3.797e-08    -7.461    -7.421     0.040     31.73
   NaOH            2.011e-12   2.107e-12   -11.697   -11.676     0.020     (0)  
O(0)          8.598e-16
   O2              4.299e-16   4.503e-16   -15.367   -15.346     0.020     30.40

------------------------------Saturation indices-------------------------------

  Phase               SI** log IAP   log K(298 K,   1 atm)

  Aragonite         0.31     -8.03   -8.34  CaCO3
  Calcite           0.45     -8.03   -8.48  CaCO3
  CH4(g)         -127.61   -130.41   -2.80  CH4
  CO2(g)          -11.86    -13.33   -1.47  CO2
  Dolomite          0.00    -17.08  -17.08  CaMg(CO3)2
  H2(g)           -35.42    -38.52   -3.10  H2
  H2O(g)           -1.51     -0.00    1.50  H2O
  O2(g)           -12.45    -15.35   -2.89  O2

**For a gas, SI = log10(fugacity). Fugacity = pressure * phi / 1 atm.
  For ideal gases, phi = 1.

Reaction step 3.

Using solution 3.	Solution after simulation 4.
Using pure phase assemblage 1.	
Using reaction 1.	

Reaction 1.	

	  3.000e-01 moles of the following reaction have been added:

	                 Relative
	Reactant            moles

	NaOH                 1.00000

	                 Relative
	Element             moles
	H                    1.00000
	Na                   1.00000
	O                    1.00000

-------------------------------Phase assemblage--------------------------------

                                                      Moles in assemblage
Phase               SI  log IAP  log K(T, P)   Initial       Final       Delta

Dolomite          0.00   -17.08    -17.08    7.000e-04   3.519e-04  -3.481e-04

-----------------------------Solution composition------------------------------

	Elements           Molality       Moles

	C                 7.916e-04   7.916e-04
	Ca                3.958e-04   3.958e-04
	Mg                3.958e-04   3.958e-04
	Na                3.000e-01   3.000e-01

----------------------------Description of solution----------------------------

                                       pH  =  13.304      Charge balance
                                       pe  =  -7.581      Adjusted to redox equilibrium
      Specific Conductance (µS/cm,  25°C)  = 60383
                          Density (g/cm³)  =   1.01032
                               Volume (L)  =   1.00173
                        Viscosity (mPa s)  =   0.94702
                        Activity of water  =   0.990
                 Ionic strength (mol/kgw)  =   3.019e-01
                       Mass of water (kg)  =   1.000e+00
                 Total alkalinity (eq/kg)  =   3.016e-01
                       Total CO2 (mol/kg)  =   7.916e-04
                         Temperature (°C)  =  25.00
                  Electrical balance (eq)  =  -1.282e-09
 Percent error, 100*(Cat-|An|)/(Cat+|An|)  =  -0.00
                               Iterations  =   8
                                  Total H  = 1.113124e+02
                                  Total O  = 5.580859e+01

----------------------------Distribution of species----------------------------

                                               Log       Log       Log    mole V
   Species          Molality    Activity  Molality  Activity     Gamma   cm³/mol

   OH-             2.994e-01   2.016e-01    -0.524    -0.695    -0.172     -3.29
   H+              6.354e-14   4.969e-14   -13.197   -13.304    -0.107      0.00
   H2O             5.551e+01   9.898e-01     1.744    -0.004     0.000     18.07
C(-4)         9.648e-36
   CH4             9.648e-36   1.034e-35   -35.016   -34.985     0.030     35.46
C(4)          7.916e-04
   CO3-2           7.748e-04   2.097e-04    -3.111    -3.678    -0.568     -1.77
   CaCO3           1.567e-05   1.680e-05    -4.805    -4.775     0.030    -14.60
   MgCO3           7.336e-07   7.864e-07    -6.135    -6.104     0.030    -17.09
   HCO3-           3.080e-07   2.222e-07    -6.511    -6.653    -0.142     25.33
   NaHCO3          3.688e-08   4.238e-08    -7.433    -7.373     0.060     31.73
   CaHCO3+         1.843e-10   1.352e-10    -9.735    -9.869    -0.135      9.91
   MgHCO3+         1.486e-11   1.022e-11   -10.828   -10.991    -0.163      5.75
   CO2             2.395e-14   2.508e-14   -13.621   -13.601     0.020     34.43
   (CO2)2          1.077e-29   1.154e-29   -28.968   -28.938     0.030     68.87
Ca            3.958e-04
   CaOH+           2.150e-04   1.577e-04    -3.668    -3.802    -0.135     (0)  
   Ca+2            1.651e-04   4.769e-05    -3.782    -4.322    -0.539    -17.06
   CaCO3           1.567e-05   1.680e-05    -4.805    -4.775     0.030    -14.60
   CaHCO3+         1.843e-10   1.352e-10    -9.735    -9.869    -0.135      9.91
H(0)          4.730e-15
   H2              2.365e-15   2.535e-15   -14.626   -14.596     0.030     28.61
Mg            3.958e-04
   MgOH+           3.826e-04   2.843e-04    -3.417    -3.546    -0.129     (0)  
   Mg+2            1.249e-05   3.931e-06    -4.903    -5.406    -0.502    -20.77
   MgCO3           7.336e-07   7.864e-07    -6.135    -6.104     0.030    -17.09
   MgHCO3+         1.486e-11   1.022e-11   -10.828   -10.991    -0.163      5.75
Na            3.000e-01
   Na+             3.000e-01   2.190e-01    -0.523    -0.660    -0.137     -0.81
   NaHCO3          3.688e-08   4.238e-08    -7.433    -7.373     0.060     31.73
   NaOH            4.119e-12   4.416e-12   -11.385   -11.355     0.030     (0)  
O(0)          0.000e+00
   O2              0.000e+00   0.000e+00   -63.227   -63.197     0.030     30.40

------------------------------Saturation indices-------------------------------

  Phase               SI** log IAP   log K(298 K,   1 atm)

  Aragonite         0.34     -8.00   -8.34  CaCO3
  Calcite           0.48     -8.00   -8.48  CaCO3
  CH4(g)          -32.18    -34.99   -2.80  CH4
  CO2(g)          -12.13    -13.60   -1.47  CO2
  Dolomite          0.00    -17.08  -17.08  CaMg(CO3)2
  H2(g)           -11.49    -14.60   -3.10  H2
  H2O(g)           -1.51     -0.00    1.50  H2O
  O2(g)           -60.30    -63.20   -2.89  O2

**For a gas, SI = log10(fugacity). Fugacity = pressure * phi / 1 atm.
  For ideal gases, phi = 1.

Reaction step 4.

Using solution 3.	Solution after simulation 4.
Using pure phase assemblage 1.	
Using reaction 1.	

Reaction 1.	

	  4.000e-01 moles of the following reaction have been added:

	                 Relative
	Reactant            moles

	NaOH                 1.00000

	                 Relative
	Element             moles
	H                    1.00000
	Na                   1.00000
	O                    1.00000

-------------------------------Phase assemblage--------------------------------

                                                      Moles in assemblage
Phase               SI  log IAP  log K(T, P)   Initial       Final       Delta

Dolomite          0.00   -17.08    -17.08    7.000e-04   2.854e-04  -4.146e-04

-----------------------------Solution composition------------------------------

	Elements           Molality       Moles

	C                 9.247e-04   9.247e-04
	Ca                4.623e-04   4.623e-04
	Mg                4.623e-04   4.623e-04
	Na                4.000e-01   4.000e-01

----------------------------Description of solution----------------------------

                                       pH  =  13.415      Charge balance
                                       pe  =  -7.870      Adjusted to redox equilibrium
      Specific Conductance (µS/cm,  25°C)  = 78625
                          Density (g/cm³)  =   1.01463
                               Volume (L)  =   1.00144
                        Viscosity (mPa s)  =   0.96738
                        Activity of water  =   0.986
                 Ionic strength (mol/kgw)  =   4.022e-01
                       Mass of water (kg)  =   1.000e+00
                 Total alkalinity (eq/kg)  =   4.018e-01
                       Total CO2 (mol/kg)  =   9.247e-04
                         Temperature (°C)  =  25.00
                  Electrical balance (eq)  =  -1.217e-09
 Percent error, 100*(Cat-|An|)/(Cat+|An|)  =  -0.00
                               Iterations  =   8
                                  Total H  = 1.114124e+02
                                  Total O  = 5.590899e+01

----------------------------Distribution of species----------------------------

                                               Log       Log       Log    mole V
   Species          Molality    Activity  Molality  Activity     Gamma   cm³/mol

   OH-             3.993e-01   2.595e-01    -0.399    -0.586    -0.187     -3.10
   H+              4.984e-14   3.847e-14   -13.302   -13.415    -0.113      0.00
   H2O             5.551e+01   9.864e-01     1.744    -0.006     0.000     18.07
C(-4)         1.606e-34
   CH4             1.606e-34   1.761e-34   -33.794   -33.754     0.040     35.46
C(4)          9.247e-04
   CO3-2           9.077e-04   2.234e-04    -3.042    -3.651    -0.609     -1.39
   CaCO3           1.604e-05   1.760e-05    -4.795    -4.755     0.040    -14.60
   MgCO3           6.844e-07   7.508e-07    -6.165    -6.124     0.040    -17.09
   HCO3-           2.601e-07   1.832e-07    -6.585    -6.737    -0.152     25.52
   NaHCO3          3.826e-08   4.605e-08    -7.417    -7.337     0.080     31.73
   CaHCO3+         1.526e-10   1.096e-10    -9.816    -9.960    -0.144      9.93
   MgHCO3+         1.134e-11   7.551e-12   -10.946   -11.122    -0.176      5.77
   CO2             1.511e-14   1.607e-14   -13.821   -13.794     0.027     34.43
   (CO2)2          4.318e-30   4.737e-30   -29.365   -29.324     0.040     68.87
Ca            4.623e-04
   CaOH+           2.732e-04   1.995e-04    -3.564    -3.700    -0.136     (0)  
   Ca+2            1.731e-04   4.689e-05    -3.762    -4.329    -0.567    -16.94
   CaCO3           1.604e-05   1.760e-05    -4.795    -4.755     0.040    -14.60
   CaHCO3+         1.526e-10   1.096e-10    -9.816    -9.960    -0.144      9.93
H(0)          1.048e-14
   H2              5.239e-15   5.747e-15   -14.281   -14.241     0.040     28.61
Mg            4.623e-04
   MgOH+           4.499e-04   3.279e-04    -3.347    -3.484    -0.137     (0)  
   Mg+2            1.173e-05   3.522e-06    -4.931    -5.453    -0.523    -20.66
   MgCO3           6.844e-07   7.508e-07    -6.165    -6.124     0.040    -17.09
   MgHCO3+         1.134e-11   7.551e-12   -10.946   -11.122    -0.176      5.77
Na            4.000e-01
   Na+             4.000e-01   2.885e-01    -0.398    -0.540    -0.142     -0.71
   NaHCO3          3.826e-08   4.605e-08    -7.417    -7.337     0.080     31.73
   NaOH            6.826e-12   7.489e-12   -11.166   -11.126     0.040     (0)  
O(0)          0.000e+00
   O2              0.000e+00   0.000e+00   -63.951   -63.911     0.040     30.40

------------------------------Saturation indices-------------------------------

  Phase               SI** log IAP   log K(298 K,   1 atm)

  Aragonite         0.36     -7.98   -8.34  CaCO3
  Calcite           0.50     -7.98   -8.48  CaCO3
  CH4(g)          -30.95    -33.75   -2.80  CH4
  CO2(g)          -12.33    -13.79   -1.47  CO2
  Dolomite          0.00    -17.08  -17.08  CaMg(CO3)2
  H2(g)           -11.14    -14.24   -3.10  H2
  H2O(g)           -1.51     -0.01    1.50  H2O
  O2(g)           -61.02    -63.91   -2.89  O2

**For a gas, SI = log10(fugacity). Fugacity = pressure * phi / 1 atm.
  For ideal gases, phi = 1.

Reaction step 5.

Using solution 3.	Solution after simulation 4.
Using pure phase assemblage 1.	
Using reaction 1.	

Reaction 1.	

	  5.000e-01 moles of the following reaction have been added:

	                 Relative
	Reactant            moles

	NaOH                 1.00000

	                 Relative
	Element             moles
	H                    1.00000
	Na                   1.00000
	O                    1.00000

-------------------------------Phase assemblage--------------------------------

                                                      Moles in assemblage
Phase               SI  log IAP  log K(T, P)   Initial       Final       Delta

Dolomite          0.00   -17.08    -17.08    7.000e-04   2.264e-04  -4.736e-04

-----------------------------Solution composition------------------------------

	Elements           Molality       Moles

	C                 1.043e-03   1.043e-03
	Ca                5.213e-04   5.213e-04
	Mg                5.213e-04   5.213e-04
	Na                5.000e-01   5.000e-01

----------------------------Description of solution----------------------------

                                       pH  =  13.501      Charge balance
                                       pe  =  -7.615      Adjusted to redox equilibrium
      Specific Conductance (µS/cm,  25°C)  = 96328
                          Density (g/cm³)  =   1.01888
                               Volume (L)  =   1.00119
                        Viscosity (mPa s)  =   0.98851
                        Activity of water  =   0.983
                 Ionic strength (mol/kgw)  =   5.024e-01
                       Mass of water (kg)  =   1.000e+00
                 Total alkalinity (eq/kg)  =   5.021e-01
                       Total CO2 (mol/kg)  =   1.043e-03
                         Temperature (°C)  =  25.00
                  Electrical balance (eq)  =  -1.217e-09
 Percent error, 100*(Cat-|An|)/(Cat+|An|)  =  -0.00
                               Iterations  =   9
                                  Total H  = 1.115124e+02
                                  Total O  = 5.600934e+01

----------------------------Distribution of species----------------------------

                                               Log       Log       Log    mole V
   Species          Molality    Activity  Molality  Activity     Gamma   cm³/mol

   OH-             4.992e-01   3.155e-01    -0.302    -0.501    -0.199     -2.92
   H+              4.126e-14   3.153e-14   -13.384   -13.501    -0.117      0.00
   H2O             5.551e+01   9.830e-01     1.744    -0.007     0.000     18.07
C(-4)         2.107e-37
   CH4             2.107e-37   2.366e-37   -36.676   -36.626     0.050     35.46
C(4)          1.043e-03
   CO3-2           1.025e-03   2.346e-04    -2.989    -3.630    -0.641     -1.04
   CaCO3           1.626e-05   1.825e-05    -4.789    -4.739     0.050    -14.60
   MgCO3           6.446e-07   7.237e-07    -6.191    -6.140     0.050    -17.09
   HCO3-           2.281e-07   1.577e-07    -6.642    -6.802    -0.160     25.70
   NaHCO3          3.910e-08   4.928e-08    -7.408    -7.307     0.100     31.73
   CaHCO3+         1.319e-10   9.321e-11    -9.880   -10.031    -0.151      9.94
   MgHCO3+         9.181e-12   5.966e-12   -11.037   -11.224    -0.187      5.79
   CO2             1.054e-14   1.137e-14   -13.977   -13.944     0.033     34.43
   (CO2)2          2.116e-30   2.375e-30   -29.675   -29.624     0.050     68.87
Ca            5.213e-04
   CaOH+           3.268e-04   2.397e-04    -3.486    -3.620    -0.135     (0)  
   Ca+2            1.783e-04   4.632e-05    -3.749    -4.334    -0.585    -16.84
   CaCO3           1.626e-05   1.825e-05    -4.789    -4.739     0.050    -14.60
   CaHCO3+         1.319e-10   9.321e-11    -9.880   -10.031    -0.151      9.94
H(0)          2.133e-15
   H2              1.066e-15   1.197e-15   -14.972   -14.922     0.050     28.61
Mg            5.213e-04
   MgOH+           5.096e-04   3.659e-04    -3.293    -3.437    -0.144     (0)  
   Mg+2            1.105e-05   3.233e-06    -4.957    -5.490    -0.534    -20.56
   MgCO3           6.446e-07   7.237e-07    -6.191    -6.140     0.050    -17.09
   MgHCO3+         9.181e-12   5.966e-12   -11.037   -11.224    -0.187      5.79
Na            5.000e-01
   Na+             5.000e-01   3.587e-01    -0.301    -0.445    -0.144     -0.63
   NaHCO3          3.910e-08   4.928e-08    -7.408    -7.307     0.100     31.73
   NaOH            1.008e-11   1.132e-11   -10.996   -10.946     0.050     (0)  
O(0)          0.000e+00
   O2              0.000e+00   0.000e+00   -62.602   -62.551     0.050     30.40

------------------------------Saturation indices-------------------------------

  Phase               SI** log IAP   log K(298 K,   1 atm)

  Aragonite         0.37     -7.96   -8.34  CaCO3
  Calcite           0.52     -7.96   -8.48  CaCO3
  CH4(g)          -33.82    -36.63   -2.80  CH4
  CO2(g)          -12.48    -13.94   -1.47  CO2
  Dolomite          0.00    -17.08  -17.08  CaMg(CO3)2
  H2(g)           -11.82    -14.92   -3.10  H2
  H2O(g)           -1.51     -0.01    1.50  H2O
  O2(g)           -59.66    -62.55   -2.89  O2

**For a gas, SI = log10(fugacity). Fugacity = pressure * phi / 1 atm.
  For ideal gases, phi = 1.

------------------
End of simulation.
------------------

------------------------------------
Reading input data for simulation 9.
------------------------------------

