WARNING: Database file from DATABASE keyword is used; command line argument ignored.
   Input file: donly
  Output file: donly.out
Database file: ../database/phreeqc.dat

------------------
Reading data base.
------------------

	SOLUTION_MASTER_SPECIES
	SOLUTION_SPECIES
	PHASES
	GAS_BINARY_PARAMETERS
	EXCHANGE_MASTER_SPECIES
	EXCHANGE_SPECIES
	SURFACE_MASTER_SPECIES
	SURFACE_SPECIES
	MEAN_GAMMAS
	RATES
	END
------------------------------------
Reading input data for simulation 1.
------------------------------------

	DATABASE ../database/phreeqc.dat
	SELECTED_OUTPUT 101
	    file                 donly_101.sel
	USER_PUNCH 101
	    headings Mu SC
	    start
	10 PUNCH STR_F$(MU, 20, 12)
	20 PUNCH STR_F$(SC, 20, 10)
	    end
	SOLUTION_SPREAD
	    units    mg/l
	 Number	 S(6)	 Alkalinity	 N(5)	   Cl	   Ca	   Mg	   Na	    K	   pH
	      	     	    as HCO3	     	     	     	     	     	     	     
	      0	  .03	       3038	  .05	 28.9	 50.5	 37.5	 1040	 47.4	 8.37
	   1-100	  380	        527	  .33	   15	 53.6	 23.8	  300	 17.5	 7.51
	END
-------------------------------------------
Beginning of initial solution calculations.
-------------------------------------------

Initial solution 0.	

-----------------------------Solution composition------------------------------

	Elements           Molality       Moles

	Alkalinity        5.000e-02   5.000e-02
	Ca                1.265e-03   1.265e-03
	Cl                8.186e-04   8.186e-04
	K                 1.217e-03   1.217e-03
	Mg                1.549e-03   1.549e-03
	N(5)              3.585e-06   3.585e-06
	Na                4.543e-02   4.543e-02
	S(6)              3.136e-07   3.136e-07

----------------------------Description of solution----------------------------

                                       pH  =   8.370    
                                       pe  =   4.000    
      Specific Conductance (µS/cm,  25°C)  = 4110
                          Density (g/cm³)  =   1.00012
                               Volume (L)  =   1.00407
                        Viscosity (mPa s)  =   0.90959
                        Activity of water  =   0.998
                 Ionic strength (mol/kgw)  =   5.189e-02
                       Mass of water (kg)  =   1.000e+00
                    Total carbon (mol/kg)  =   4.898e-02
                       Total CO2 (mol/kg)  =   4.898e-02
                         Temperature (°C)  =  25.00
                  Electrical balance (eq)  =   1.454e-03
 Percent error, 100*(Cat-|An|)/(Cat+|An|)  =   1.48
                               Iterations  =   7
                                  Total H  = 1.110597e+02
                                  Total O  = 5.565280e+01

----------------------------Distribution of species----------------------------

                                               Log       Log       Log    mole V
   Species          Molality    Activity  Molality  Activity     Gamma   cm³/mol

   OH-             2.928e-06   2.369e-06    -5.533    -5.625    -0.092     -3.87
   H+              5.005e-09   4.266e-09    -8.301    -8.370    -0.069      0.00
   H2O             5.551e+01   9.983e-01     1.744    -0.001     0.000     18.07
C(4)          4.898e-02
   HCO3-           4.570e-02   3.777e-02    -1.340    -1.423    -0.083     24.80
   NaHCO3          1.170e-03   1.198e-03    -2.932    -2.922     0.010     31.73
   CO3-2           8.897e-04   4.152e-04    -3.051    -3.382    -0.331     -3.15
   CO2             3.600e-04   3.628e-04    -3.444    -3.440     0.003     34.43
   CaCO3           2.906e-04   2.941e-04    -3.537    -3.531     0.005    -14.60
   MgHCO3+         2.786e-04   2.267e-04    -3.555    -3.644    -0.089      5.61
   MgCO3           2.009e-04   2.033e-04    -3.697    -3.692     0.005    -17.09
   CaHCO3+         7.389e-05   6.143e-05    -4.131    -4.212    -0.080      9.79
   KHCO3           1.640e-05   1.642e-05    -4.785    -4.785     0.000     41.03
   (CO2)2          2.388e-09   2.416e-09    -8.622    -8.617     0.005     68.87
Ca            1.265e-03
   Ca+2            9.008e-04   4.217e-04    -3.045    -3.375    -0.330    -17.61
   CaCO3           2.906e-04   2.941e-04    -3.537    -3.531     0.005    -14.60
   CaHCO3+         7.389e-05   6.143e-05    -4.131    -4.212    -0.080      9.79
   CaOH+           2.000e-08   1.638e-08    -7.699    -7.786    -0.087     (0)  
   CaSO4           7.429e-09   7.518e-09    -8.129    -8.124     0.005      7.50
   CaHSO4+         2.574e-16   2.108e-16   -15.589   -15.676    -0.087     (0)  
Cl            8.186e-04
   Cl-             8.186e-04   6.647e-04    -3.087    -3.177    -0.090     18.26
   HCl             9.283e-13   9.767e-13   -12.032   -12.010     0.022     (0)  
H(0)          2.546e-28
   H2              1.273e-28   1.288e-28   -27.895   -27.890     0.005     28.61
K             1.217e-03
   K+              1.201e-03   9.733e-04    -2.920    -3.012    -0.091      9.17
   KHCO3           1.640e-05   1.642e-05    -4.785    -4.785     0.000     41.03
   KSO4-           1.756e-09   1.485e-09    -8.755    -8.828    -0.073     14.24
Mg            1.549e-03
   Mg+2            1.069e-03   5.130e-04    -2.971    -3.290    -0.319    -21.31
   MgHCO3+         2.786e-04   2.267e-04    -3.555    -3.644    -0.089      5.61
   MgCO3           2.009e-04   2.033e-04    -3.697    -3.692     0.005    -17.09
   MgOH+           5.219e-07   4.360e-07    -6.282    -6.361    -0.078     (0)  
   MgSO4           1.315e-08   1.347e-08    -7.881    -7.871     0.010     -7.92
   Mg(SO4)2-2      8.925e-15   4.447e-15   -14.049   -14.352    -0.303     16.05
N(5)          3.585e-06
   NO3-            3.585e-06   2.881e-06    -5.446    -5.540    -0.095     29.68
Na            4.543e-02
   Na+             4.426e-02   3.641e-02    -1.354    -1.439    -0.085     -1.21
   NaHCO3          1.170e-03   1.198e-03    -2.932    -2.922     0.010     31.73
   NaSO4-          7.183e-08   5.943e-08    -7.144    -7.226    -0.082     -8.55
O(0)          4.948e-37
   O2              2.474e-37   2.504e-37   -36.607   -36.601     0.005     30.40
S(6)          3.136e-07
   SO4-2           2.195e-07   1.003e-07    -6.659    -6.999    -0.340     21.84
   NaSO4-          7.183e-08   5.943e-08    -7.144    -7.226    -0.082     -8.55
   MgSO4           1.315e-08   1.347e-08    -7.881    -7.871     0.010     -7.92
   CaSO4           7.429e-09   7.518e-09    -8.129    -8.124     0.005      7.50
   KSO4-           1.756e-09   1.485e-09    -8.755    -8.828    -0.073     14.24
   HSO4-           5.076e-14   4.158e-14   -13.294   -13.381    -0.087     40.46
   Mg(SO4)2-2      8.925e-15   4.447e-15   -14.049   -14.352    -0.303     16.05
   CaHSO4+         2.574e-16   2.108e-16   -15.589   -15.676    -0.087     (0)  

------------------------------Saturation indices-------------------------------

  Phase               SI** log IAP   log K(298 K,   1 atm)

  Anhydrite        -6.10    -10.37   -4.28  CaSO4
  Aragonite         1.58     -6.76   -8.34  CaCO3
  Arcanite        -11.14    -13.02   -1.88  K2SO4
  Calcite           1.72     -6.76   -8.48  CaCO3
  CO2(g)           -1.97     -3.44   -1.47  CO2
  Dolomite          3.66    -13.43  -17.08  CaMg(CO3)2
  Epsomite         -8.56    -10.29   -1.74  MgSO4:7H2O
  Gypsum           -5.79    -10.38   -4.58  CaSO4:2H2O
  H2(g)           -24.79    -27.89   -3.10  H2
  H2O(g)           -1.50     -0.00    1.50  H2O
  Halite           -6.19     -4.62    1.57  NaCl
  Hexahydrite      -8.73    -10.29   -1.57  MgSO4:6H2O
  Kieserite        -9.13    -10.29   -1.16  MgSO4:H2O
  Mirabilite       -8.64     -9.88   -1.24  Na2SO4:10H2O
  O2(g)           -33.71    -36.60   -2.89  O2
  Sylvite          -7.09     -6.19    0.90  KCl
  Thenardite       -9.58     -9.88   -0.30  Na2SO4

**For a gas, SI = log10(fugacity). Fugacity = pressure * phi / 1 atm.
  For ideal gases, phi = 1.

Initial solution 1.	

-----------------------------Solution composition------------------------------

	Elements           Molality       Moles

	Alkalinity        8.648e-03   8.648e-03
	Ca                1.339e-03   1.339e-03
	Cl                4.237e-04   4.237e-04
	K                 4.481e-04   4.481e-04
	Mg                9.802e-04   9.802e-04
	N(5)              2.359e-05   2.359e-05
	Na                1.307e-02   1.307e-02
	S(6)              3.961e-03   3.961e-03

----------------------------Description of solution----------------------------

                                       pH  =   7.510    
                                       pe  =   4.000    
      Specific Conductance (µS/cm,  25°C)  = 1715
                          Density (g/cm³)  =   0.99813
                               Volume (L)  =   1.00321
                        Viscosity (mPa s)  =   0.89893
                        Activity of water  =   1.000
                 Ionic strength (mol/kgw)  =   2.123e-02
                       Mass of water (kg)  =   1.000e+00
                    Total carbon (mol/kg)  =   9.122e-03
                       Total CO2 (mol/kg)  =   9.122e-03
                         Temperature (°C)  =  25.00
                  Electrical balance (eq)  =   1.136e-03
 Percent error, 100*(Cat-|An|)/(Cat+|An|)  =   3.50
                               Iterations  =   7 (14 overall)
                                  Total H  = 1.110210e+02
                                  Total O  = 5.554899e+01

----------------------------Distribution of species----------------------------

                                               Log       Log       Log    mole V
   Species          Molality    Activity  Molality  Activity     Gamma   cm³/mol

   OH-             3.790e-07   3.274e-07    -6.421    -6.485    -0.064     -3.98
   H+              3.483e-08   3.090e-08    -7.458    -7.510    -0.052      0.00
   H2O             5.551e+01   9.995e-01     1.744    -0.000     0.000     18.07
C(4)          9.122e-03
   HCO3-           8.442e-03   7.368e-03    -2.074    -2.133    -0.059     24.70
   CO2             5.106e-04   5.122e-04    -3.292    -3.291     0.001     34.43
   NaHCO3          6.981e-05   7.049e-05    -4.156    -4.152     0.004     31.73
   MgHCO3+         4.262e-05   3.692e-05    -4.370    -4.433    -0.062      5.56
   CaHCO3+         2.074e-05   1.816e-05    -4.683    -4.741    -0.058      9.75
   CO3-2           1.926e-05   1.118e-05    -4.715    -4.951    -0.236     -3.49
   CaCO3           1.194e-05   1.200e-05    -4.923    -4.921     0.002    -14.60
   MgCO3           4.547e-06   4.570e-06    -5.342    -5.340     0.002    -17.09
   KHCO3           1.237e-06   1.238e-06    -5.908    -5.907     0.000     41.03
   (CO2)2          4.792e-09   4.816e-09    -8.319    -8.317     0.002     68.87
Ca            1.339e-03
   Ca+2            1.101e-03   6.388e-04    -2.958    -3.195    -0.236    -17.80
   CaSO4           2.056e-04   2.066e-04    -3.687    -3.685     0.002      7.50
   CaHCO3+         2.074e-05   1.816e-05    -4.683    -4.741    -0.058      9.75
   CaCO3           1.194e-05   1.200e-05    -4.923    -4.921     0.002    -14.60
   CaOH+           3.952e-09   3.429e-09    -8.403    -8.465    -0.062     (0)  
   CaHSO4+         4.836e-11   4.196e-11   -10.316   -10.377    -0.062     (0)  
Cl            4.237e-04
   Cl-             4.237e-04   3.665e-04    -3.373    -3.436    -0.063     18.18
   HCl             3.821e-12   3.901e-12   -11.418   -11.409     0.009     (0)  
H(0)          1.346e-26
   H2              6.728e-27   6.761e-27   -26.172   -26.170     0.002     28.61
K             4.481e-04
   K+              4.351e-04   3.761e-04    -3.361    -3.425    -0.063      9.11
   KSO4-           1.181e-05   1.040e-05    -4.928    -4.983    -0.055     14.22
   KHCO3           1.237e-06   1.238e-06    -5.908    -5.907     0.000     41.03
Mg            9.802e-04
   Mg+2            7.291e-04   4.282e-04    -3.137    -3.368    -0.231    -21.49
   MgSO4           2.019e-04   2.039e-04    -3.695    -3.691     0.004     -7.92
   MgHCO3+         4.262e-05   3.692e-05    -4.370    -4.433    -0.062      5.56
   MgCO3           4.547e-06   4.570e-06    -5.342    -5.340     0.002    -17.09
   Mg(SO4)2-2      2.035e-06   1.221e-06    -5.692    -5.913    -0.222     10.96
   MgOH+           5.730e-08   5.029e-08    -7.242    -7.299    -0.057     (0)  
N(5)          2.359e-05
   NO3-            2.359e-05   2.031e-05    -4.627    -4.692    -0.065     29.60
Na            1.307e-02
   Na+             1.262e-02   1.098e-02    -1.899    -1.959    -0.060     -1.32
   NaSO4-          3.723e-04   3.252e-04    -3.429    -3.488    -0.059    -12.43
   NaHCO3          6.981e-05   7.049e-05    -4.156    -4.152     0.004     31.73
O(0)          0.000e+00
   O2              0.000e+00   0.000e+00   -40.043   -40.040     0.002     30.40
S(6)          3.961e-03
   SO4-2           3.165e-03   1.818e-03    -2.500    -2.740    -0.241     19.34
   NaSO4-          3.723e-04   3.252e-04    -3.429    -3.488    -0.059    -12.43
   CaSO4           2.056e-04   2.066e-04    -3.687    -3.685     0.002      7.50
   MgSO4           2.019e-04   2.039e-04    -3.695    -3.691     0.004     -7.92
   KSO4-           1.181e-05   1.040e-05    -4.928    -4.983    -0.055     14.22
   Mg(SO4)2-2      2.035e-06   1.221e-06    -5.692    -5.913    -0.222     10.96
   HSO4-           6.296e-09   5.464e-09    -8.201    -8.263    -0.062     40.38
   CaHSO4+         4.836e-11   4.196e-11   -10.316   -10.377    -0.062     (0)  

------------------------------Saturation indices-------------------------------

  Phase               SI** log IAP   log K(298 K,   1 atm)

  Anhydrite        -1.66     -5.93   -4.28  CaSO4
  Aragonite         0.19     -8.15   -8.34  CaCO3
  Arcanite         -7.71     -9.59   -1.88  K2SO4
  Calcite           0.33     -8.15   -8.48  CaCO3
  CO2(g)           -1.82     -3.29   -1.47  CO2
  Dolomite          0.62    -16.47  -17.08  CaMg(CO3)2
  Epsomite         -4.37     -6.11   -1.74  MgSO4:7H2O
  Gypsum           -1.35     -5.94   -4.58  CaSO4:2H2O
  H2(g)           -23.07    -26.17   -3.10  H2
  H2O(g)           -1.50     -0.00    1.50  H2O
  Halite           -6.97     -5.40    1.57  NaCl
  Hexahydrite      -4.54     -6.11   -1.57  MgSO4:6H2O
  Kieserite        -4.95     -6.11   -1.16  MgSO4:H2O
  Mirabilite       -5.42     -6.66   -1.24  Na2SO4:10H2O
  O2(g)           -37.15    -40.04   -2.89  O2
  Sylvite          -7.76     -6.86    0.90  KCl
  Thenardite       -6.36     -6.66   -0.30  Na2SO4

**For a gas, SI = log10(fugacity). Fugacity = pressure * phi / 1 atm.
  For ideal gases, phi = 1.

------------------
End of simulation.
------------------

------------------------------------
Reading input data for simulation 2.
------------------------------------

	EXCHANGE 1-100
	 	X  1.5
		equilibrate 1
	END
-------------------------------------------------------
Beginning of initial exchange-composition calculations.
-------------------------------------------------------

Exchange 1.	

X                1.500e+00 mol

	                               Equiv-    Equivalent      Log 
	Species             Moles      alents      Fraction     Gamma

	CaX2              4.557e-01   9.114e-01   6.076e-01    -0.236
	MgX2              1.904e-01   3.809e-01   2.539e-01    -0.231
	NaX               1.771e-01   1.771e-01   1.181e-01    -0.060
	KX                3.059e-02   3.059e-02   2.040e-02    -0.063

------------------
End of simulation.
------------------

------------------------------------
Reading input data for simulation 3.
------------------------------------

	EQUILIBRIUM_PHASES 1-100
		Calcite 0 1
		Dolomite 0 1  dissolve
		Gypsum 0 1
	SOLUTION 1-4
		units mmol/kgw
		Na 100
		Cl 100	charge
	END
-------------------------------------------
Beginning of initial solution calculations.
-------------------------------------------

Initial solution 1.	

-----------------------------Solution composition------------------------------

	Elements           Molality       Moles

	Cl                1.000e-01   1.000e-01  Charge balance
	Na                1.000e-01   1.000e-01

----------------------------Description of solution----------------------------

                                       pH  =   7.000    
                                       pe  =   4.000    
      Specific Conductance (µS/cm,  25°C)  = 10609
                          Density (g/cm³)  =   1.00115
                               Volume (L)  =   1.00469
                        Viscosity (mPa s)  =   0.89854
                        Activity of water  =   0.997
                 Ionic strength (mol/kgw)  =   1.000e-01
                       Mass of water (kg)  =   1.000e+00
                 Total alkalinity (eq/kg)  =   8.896e-09
                         Temperature (°C)  =  25.00
                  Electrical balance (eq)  =  -1.232e-15
 Percent error, 100*(Cat-|An|)/(Cat+|An|)  =  -0.00
                               Iterations  =   9
                                  Total H  = 1.110124e+02
                                  Total O  = 5.550622e+01

----------------------------Distribution of species----------------------------

                                               Log       Log       Log    mole V
   Species          Molality    Activity  Molality  Activity     Gamma   cm³/mol

   OH-             1.324e-07   1.009e-07    -6.878    -6.996    -0.118     -3.73
   H+              1.212e-07   1.000e-07    -6.917    -7.000    -0.083      0.00
   H2O             5.551e+01   9.966e-01     1.744    -0.001     0.000     18.07
Cl            1.000e-01
   Cl-             1.000e-01   7.666e-02    -1.000    -1.115    -0.115     18.34
   HCl             2.394e-09   2.641e-09    -8.621    -8.578     0.043     (0)  
H(0)          1.384e-25
   H2              6.918e-26   7.079e-26   -25.160   -25.150     0.010     28.61
Na            1.000e-01
   Na+             1.000e-01   7.851e-02    -1.000    -1.105    -0.105     -1.09
O(0)          0.000e+00
   O2              0.000e+00   0.000e+00   -42.093   -42.083     0.010     30.40

------------------------------Saturation indices-------------------------------

  Phase               SI** log IAP   log K(298 K,   1 atm)

  H2(g)           -22.05    -25.15   -3.10  H2
  H2O(g)           -1.50     -0.00    1.50  H2O
  Halite           -3.79     -2.22    1.57  NaCl
  O2(g)           -39.19    -42.08   -2.89  O2

**For a gas, SI = log10(fugacity). Fugacity = pressure * phi / 1 atm.
  For ideal gases, phi = 1.

-----------------------------------------
Beginning of batch-reaction calculations.
-----------------------------------------

Reaction step 1.

Using solution 1.	
Using pure phase assemblage 1.	

-------------------------------Phase assemblage--------------------------------

                                                      Moles in assemblage
Phase               SI  log IAP  log K(T, P)   Initial       Final       Delta

Calcite           0.00    -8.48     -8.48    1.000e+00   1.032e+00   3.151e-02
Dolomite          0.00   -17.08    -17.08    1.000e+00   9.842e-01  -1.578e-02
Gypsum            0.00    -4.58     -4.58    1.000e+00   9.645e-01  -3.547e-02

-----------------------------Solution composition------------------------------

	Elements           Molality       Moles

	C                 3.593e-05   3.597e-05
	Ca                1.970e-02   1.973e-02
	Cl                9.987e-02   1.000e-01
	Mg                1.576e-02   1.578e-02
	Na                9.987e-02   1.000e-01
	S                 3.542e-02   3.547e-02

----------------------------Description of solution----------------------------

                                       pH  =   8.903      Charge balance
                                       pe  =  -3.278      Adjusted to redox equilibrium
      Specific Conductance (µS/cm,  25°C)  = 14832
                          Density (g/cm³)  =   1.00567
                               Volume (L)  =   1.00600
                        Viscosity (mPa s)  =   0.91510
                        Activity of water  =   0.996
                 Ionic strength (mol/kgw)  =   1.877e-01
                       Mass of water (kg)  =   1.001e+00
                 Total alkalinity (eq/kg)  =   7.186e-05
                       Total CO2 (mol/kg)  =   3.593e-05
                         Temperature (°C)  =  25.00
                  Electrical balance (eq)  =  -2.285e-11
 Percent error, 100*(Cat-|An|)/(Cat+|An|)  =  -0.00
                               Iterations  =  19
                                  Total H  = 1.111543e+02
                                  Total O  = 5.571912e+01

----------------------------Distribution of species----------------------------

                                               Log       Log       Log    mole V
   Species          Molality    Activity  Molality  Activity     Gamma   cm³/mol

   OH-             1.133e-05   8.065e-06    -4.946    -5.093    -0.148     -3.52
   H+              1.562e-09   1.250e-09    -8.806    -8.903    -0.097      0.00
   H2O             5.551e+01   9.957e-01     1.744    -0.002     0.000     18.07
C(-4)         1.179e-28
   CH4             1.179e-28   1.231e-28   -27.928   -27.910     0.019     35.46
C(4)          3.593e-05
   HCO3-           2.367e-05   1.775e-05    -4.626    -4.751    -0.125     25.11
   CaCO3           5.328e-06   5.563e-06    -5.273    -5.255     0.019    -14.60
   MgCO3           2.274e-06   2.375e-06    -5.643    -5.624     0.019    -17.09
   CO3-2           2.106e-06   6.662e-07    -5.677    -6.176    -0.500     -2.28
   MgHCO3+         1.073e-06   7.759e-07    -5.969    -6.110    -0.141      5.71
   NaHCO3          9.790e-07   1.067e-06    -6.009    -5.972     0.038     31.73
   CaHCO3+         4.479e-07   3.404e-07    -6.349    -6.468    -0.119      9.87
   CO2             4.868e-08   5.009e-08    -7.313    -7.300     0.012     34.43
   (CO2)2          4.411e-17   4.606e-17   -16.355   -16.337     0.019     68.87
Ca            1.970e-02
   Ca+2            1.520e-02   4.971e-03    -1.818    -2.304    -0.485    -17.23
   CaSO4           4.494e-03   4.692e-03    -2.347    -2.329     0.019      7.50
   CaCO3           5.328e-06   5.563e-06    -5.273    -5.255     0.019    -14.60
   CaOH+           8.774e-07   6.573e-07    -6.057    -6.182    -0.125     (0)  
   CaHCO3+         4.479e-07   3.404e-07    -6.349    -6.468    -0.119      9.87
   CaHSO4+         5.145e-11   3.854e-11   -10.289   -10.414    -0.125     (0)  
Cl            9.987e-02
   Cl-             9.987e-02   7.193e-02    -1.001    -1.143    -0.143     18.45
   HCl             2.576e-11   3.097e-11   -10.589   -10.509     0.080     (0)  
H(0)          7.610e-15
   H2              3.805e-15   3.973e-15   -14.420   -14.401     0.019     28.61
Mg            1.576e-02
   Mg+2            1.073e-02   3.735e-03    -1.969    -2.428    -0.458    -20.94
   MgSO4           4.761e-03   5.191e-03    -2.322    -2.285     0.038     -7.92
   Mg(SO4)2-2      2.465e-04   9.076e-05    -3.608    -4.042    -0.434     24.00
   MgOH+           1.408e-05   1.081e-05    -4.852    -4.966    -0.115     (0)  
   MgCO3           2.274e-06   2.375e-06    -5.643    -5.624     0.019    -17.09
   MgHCO3+         1.073e-06   7.759e-07    -5.969    -6.110    -0.141      5.71
Na            9.987e-02
   Na+             9.194e-02   6.904e-02    -1.037    -1.161    -0.124     -0.95
   NaSO4-          7.936e-03   5.965e-03    -2.100    -2.224    -0.124     -1.36
   NaHCO3          9.790e-07   1.067e-06    -6.009    -5.972     0.038     31.73
O(0)          0.000e+00
   O2              0.000e+00   0.000e+00   -63.601   -63.582     0.019     30.40
S(-2)         4.232e-23
   HS-             4.200e-23   2.990e-23   -22.377   -22.524    -0.148     20.98
   H2S             3.129e-25   3.267e-25   -24.505   -24.486     0.019     36.27
   S-2             9.492e-27   2.890e-27   -26.023   -26.539    -0.516     (0)  
   (H2S)2          0.000e+00   0.000e+00   -50.269   -50.250     0.019     30.09
S(6)          3.542e-02
   SO4-2           1.774e-02   5.308e-03    -1.751    -2.275    -0.524     27.82
   NaSO4-          7.936e-03   5.965e-03    -2.100    -2.224    -0.124     -1.36
   MgSO4           4.761e-03   5.191e-03    -2.322    -2.285     0.038     -7.92
   CaSO4           4.494e-03   4.692e-03    -2.347    -2.329     0.019      7.50
   Mg(SO4)2-2      2.465e-04   9.076e-05    -3.608    -4.042    -0.434     24.00
   HSO4-           8.609e-10   6.449e-10    -9.065    -9.190    -0.125     40.64
   CaHSO4+         5.145e-11   3.854e-11   -10.289   -10.414    -0.125     (0)  

------------------------------Saturation indices-------------------------------

  Phase               SI** log IAP   log K(298 K,   1 atm)

  Anhydrite        -0.30     -4.58   -4.28  CaSO4
  Aragonite        -0.14     -8.48   -8.34  CaCO3
  Calcite           0.00     -8.48   -8.48  CaCO3
  CH4(g)          -25.11    -27.91   -2.80  CH4
  CO2(g)           -5.83     -7.30   -1.47  CO2
  Dolomite          0.00    -17.08  -17.08  CaMg(CO3)2
  Epsomite         -2.98     -4.72   -1.74  MgSO4:7H2O
  Gypsum            0.00     -4.58   -4.58  CaSO4:2H2O
  H2(g)           -11.30    -14.40   -3.10  H2
  H2O(g)           -1.50     -0.00    1.50  H2O
  H2S(g)          -23.49    -31.43   -7.94  H2S
  Halite           -3.87     -2.30    1.57  NaCl
  Hexahydrite      -3.15     -4.71   -1.57  MgSO4:6H2O
  Kieserite        -3.54     -4.70   -1.16  MgSO4:H2O
  Mirabilite       -3.38     -4.62   -1.24  Na2SO4:10H2O
  O2(g)           -60.69    -63.58   -2.89  O2
  Sulfur          -18.12    -13.23    4.88  S
  Thenardite       -4.30     -4.60   -0.30  Na2SO4

**For a gas, SI = log10(fugacity). Fugacity = pressure * phi / 1 atm.
  For ideal gases, phi = 1.

------------------
End of simulation.
------------------

------------------------------------
Reading input data for simulation 4.
------------------------------------

	SELECTED_OUTPUT
	      file donly.sel
	      reset false
	      solution
		totals  Na Mg Ca S C Cl
		equilibrium_phases Calcite Dolomite Gypsum 
	USER_PUNCH
	heading pH
	10 PUNCH -LA("H+")
	END
------------------
End of simulation.
------------------

------------------------------------
Reading input data for simulation 5.
------------------------------------

	ADVECTION
		cells 30
		shifts 10
	        print_frequency 5
	END
------------------------------------
Beginning of advection calculations.
------------------------------------

Beginning of advection time step 1, cumulative pore volumes 0.033333.
Beginning of advection time step 2, cumulative pore volumes 0.066667.
Beginning of advection time step 3, cumulative pore volumes 0.100000.
Beginning of advection time step 4, cumulative pore volumes 0.133333.
Beginning of advection time step 5, cumulative pore volumes 0.166667.

Cell 1.

Using solution 1.	
Using exchange 1.	Exchange assemblage after simulation 5.
Using pure phase assemblage 1.	Pure-phase assemblage after simulation 5.

-------------------------------Phase assemblage--------------------------------

                                                      Moles in assemblage
Phase               SI  log IAP  log K(T, P)   Initial       Final       Delta

Calcite           0.00    -8.48     -8.48    1.168e+00   1.204e+00   3.638e-02
Dolomite          0.00   -17.08    -17.08    9.494e-01   9.395e-01  -9.899e-03
Gypsum            0.00    -4.58     -4.58    8.510e-01   8.132e-01  -3.775e-02

-----------------------------Exchange composition------------------------------

X                1.500e+00 mol

	                               Equiv-    Equivalent      Log 
	Species             Moles      alents      Fraction     Gamma

	CaX2              4.395e-01   8.790e-01   5.860e-01    -0.414
	MgX2              1.999e-01   3.997e-01   2.665e-01    -0.396
	NaX               1.913e-01   1.913e-01   1.276e-01    -0.107
	KX                2.994e-02   2.994e-02   1.996e-02    -0.119
	NH4X              1.170e-52   1.170e-52   7.799e-53     0.000

-----------------------------Solution composition------------------------------

	Elements           Molality       Moles

	C                 3.234e-02   3.239e-02
	Ca                1.307e-02   1.310e-02
	Cl                8.173e-04   8.186e-04
	K                 1.334e-03   1.336e-03
	Mg                1.171e-02   1.173e-02
	N                 3.579e-06   3.585e-06
	Na                4.354e-02   4.361e-02
	S                 3.768e-02   3.775e-02

----------------------------Description of solution----------------------------

                                       pH  =   6.249      Charge balance
                                       pe  =  13.032      Adjusted to redox equilibrium
      Specific Conductance (µS/cm,  25°C)  = 7139
                          Density (g/cm³)  =   1.00305
                               Volume (L)  =   1.00579
                        Viscosity (mPa s)  =   0.92821
                        Activity of water  =   0.998
                 Ionic strength (mol/kgw)  =   1.049e-01
                       Mass of water (kg)  =   1.002e+00
                 Total alkalinity (eq/kg)  =   1.680e-02
                       Total CO2 (mol/kg)  =   3.234e-02
                         Temperature (°C)  =  25.00
                  Electrical balance (eq)  =   1.454e-03
 Percent error, 100*(Cat-|An|)/(Cat+|An|)  =   1.07
                               Iterations  =  16
                                  Total H  = 1.112107e+02
                                  Total O  = 5.582951e+01

----------------------------Distribution of species----------------------------

                                               Log       Log       Log    mole V
   Species          Molality    Activity  Molality  Activity     Gamma   cm³/mol

   H+              6.849e-07   5.640e-07    -6.164    -6.249    -0.084      0.00
   OH-             2.363e-08   1.791e-08    -7.627    -7.747    -0.120     -3.72
   H2O             5.551e+01   9.979e-01     1.744    -0.001     0.000     18.07
C(-4)         0.000e+00
   CH4             0.000e+00   0.000e+00  -131.663  -131.652     0.010     35.46
C(4)          3.234e-02
   HCO3-           1.582e-02   1.242e-02    -1.801    -1.906    -0.105     24.93
   CO2             1.554e-02   1.579e-02    -1.809    -1.802     0.007     34.43
   MgHCO3+         4.572e-04   3.502e-04    -3.340    -3.456    -0.116      5.66
   NaHCO3          3.079e-04   3.231e-04    -3.512    -3.491     0.021     31.73
   CaHCO3+         1.938e-04   1.536e-04    -3.713    -3.814    -0.101      9.83
   CaCO3           5.430e-06   5.563e-06    -5.265    -5.255     0.010    -14.60
   KHCO3           5.019e-06   5.030e-06    -5.299    -5.298     0.001     41.03
   (CO2)2          4.465e-06   4.574e-06    -5.350    -5.340     0.010     68.87
   CO3-2           2.715e-06   1.033e-06    -5.566    -5.986    -0.420     -2.75
   MgCO3           2.318e-06   2.375e-06    -5.635    -5.624     0.010    -17.09
Ca            1.307e-02
   Ca+2            8.316e-03   3.206e-03    -2.080    -2.494    -0.414    -17.42
   CaSO4           4.560e-03   4.671e-03    -2.341    -2.331     0.010      7.50
   CaHCO3+         1.938e-04   1.536e-04    -3.713    -3.814    -0.101      9.83
   CaCO3           5.430e-06   5.563e-06    -5.265    -5.255     0.010    -14.60
   CaHSO4+         2.224e-08   1.732e-08    -7.653    -7.762    -0.109     (0)  
   CaOH+           1.209e-09   9.413e-10    -8.918    -9.026    -0.109     (0)  
Cl            8.173e-04
   Cl-             8.173e-04   6.237e-04    -3.088    -3.205    -0.117     18.35
   HCl             1.093e-10   1.212e-10    -9.961    -9.917     0.045     (0)  
H(0)          0.000e+00
   H2              0.000e+00   0.000e+00   -41.721   -41.711     0.010     28.61
K             1.334e-03
   K+              1.192e-03   9.065e-04    -2.924    -3.043    -0.119      9.25
   KSO4-           1.375e-04   1.130e-04    -3.862    -3.947    -0.085     14.22
   KHCO3           5.019e-06   5.030e-06    -5.299    -5.298     0.001     41.03
Mg            1.171e-02
   Mg+2            5.993e-03   2.409e-03    -2.222    -2.618    -0.396    -21.12
   MgSO4           4.925e-03   5.169e-03    -2.308    -2.287     0.021     -7.92
   MgHCO3+         4.572e-04   3.502e-04    -3.340    -3.456    -0.116      5.66
   Mg(SO4)2-2      3.299e-04   1.395e-04    -3.482    -3.855    -0.374     20.30
   MgCO3           2.318e-06   2.375e-06    -5.635    -5.624     0.010    -17.09
   MgOH+           1.938e-08   1.548e-08    -7.713    -7.810    -0.098     (0)  
N(-3)         0.000e+00
   NH4+            0.000e+00   0.000e+00   -53.101   -53.232    -0.130     18.16
   NH4SO4-         0.000e+00   0.000e+00   -53.967   -54.106    -0.139     14.20
   NH3             0.000e+00   0.000e+00   -56.238   -56.227     0.010     24.42
N(0)          8.553e-10
   N2              4.276e-10   4.381e-10    -9.369    -9.358     0.010     29.29
N(3)          3.664e-16
   NO2-            3.664e-16   2.746e-16   -15.436   -15.561    -0.125     25.24
N(5)          3.578e-06
   NO3-            3.578e-06   2.682e-06    -5.446    -5.572    -0.125     29.77
Na            4.354e-02
   Na+             3.817e-02   2.986e-02    -1.418    -1.525    -0.107     -1.08
   NaSO4-          5.064e-03   3.984e-03    -2.295    -2.400    -0.104     -4.88
   NaHCO3          3.079e-04   3.231e-04    -3.512    -3.491     0.021     31.73
O(0)          2.138e-09
   O2              1.069e-09   1.095e-09    -8.971    -8.960     0.010     30.40
S(-2)         0.000e+00
   H2S             0.000e+00   0.000e+00  -128.242  -128.231     0.010     36.27
   HS-             0.000e+00   0.000e+00  -128.804  -128.924    -0.120     20.88
   S-2             0.000e+00   0.000e+00  -135.162  -135.593    -0.431     (0)  
   (H2S)2          0.000e+00   0.000e+00  -257.751  -257.741     0.010     30.09
S(6)          3.768e-02
   SO4-2           2.234e-02   8.195e-03    -1.651    -2.086    -0.435     24.68
   NaSO4-          5.064e-03   3.984e-03    -2.295    -2.400    -0.104     -4.88
   MgSO4           4.925e-03   5.169e-03    -2.308    -2.287     0.021     -7.92
   CaSO4           4.560e-03   4.671e-03    -2.341    -2.331     0.010      7.50
   Mg(SO4)2-2      3.299e-04   1.395e-04    -3.482    -3.855    -0.374     20.30
   KSO4-           1.375e-04   1.130e-04    -3.862    -3.947    -0.085     14.22
   HSO4-           5.771e-07   4.493e-07    -6.239    -6.347    -0.109     40.54
   CaHSO4+         2.224e-08   1.732e-08    -7.653    -7.762    -0.109     (0)  
   NH4SO4-         0.000e+00   0.000e+00   -53.967   -54.106    -0.139     14.20

------------------------------Saturation indices-------------------------------

  Phase               SI** log IAP   log K(298 K,   1 atm)

  Anhydrite        -0.30     -4.58   -4.28  CaSO4
  Aragonite        -0.14     -8.48   -8.34  CaCO3
  Arcanite         -6.29     -8.17   -1.88  K2SO4
  Calcite           0.00     -8.48   -8.48  CaCO3
  CH4(g)         -128.85   -131.65   -2.80  CH4
  CO2(g)           -0.33     -1.80   -1.47  CO2
  Dolomite          0.00    -17.08  -17.08  CaMg(CO3)2
  Epsomite         -2.97     -4.71   -1.74  MgSO4:7H2O
  Gypsum            0.00     -4.58   -4.58  CaSO4:2H2O
  H2(g)           -38.61    -41.71   -3.10  H2
  H2O(g)           -1.50     -0.00    1.50  H2O
  H2S(g)         -127.24   -135.17   -7.94  H2S
  Halite           -6.30     -4.73    1.57  NaCl
  Hexahydrite      -3.14     -4.71   -1.57  MgSO4:6H2O
  Kieserite        -3.54     -4.71   -1.16  MgSO4:H2O
  Mirabilite       -3.91     -5.15   -1.24  Na2SO4:10H2O
  N2(g)            -6.18     -9.36   -3.18  N2
  NH3(g)          -58.02    -56.23    1.80  NH3
  O2(g)            -6.07     -8.96   -2.89  O2
  Sulfur          -94.55    -89.67    4.88  S
  Sylvite          -7.15     -6.25    0.90  KCl
  Thenardite       -4.84     -5.14   -0.30  Na2SO4

**For a gas, SI = log10(fugacity). Fugacity = pressure * phi / 1 atm.
  For ideal gases, phi = 1.


Cell 2.

Using solution 2.	Solution after simulation 5.
Using exchange 2.	Exchange assemblage after simulation 5.
Using pure phase assemblage 2.	Pure-phase assemblage after simulation 5.

-------------------------------Phase assemblage--------------------------------

                                                      Moles in assemblage
Phase               SI  log IAP  log K(T, P)   Initial       Final       Delta

Calcite           0.00    -8.48     -8.48    1.053e+00   1.054e+00   3.422e-04
Dolomite          0.00   -17.08    -17.08    9.732e-01   9.730e-01  -1.938e-04
Gypsum            0.00    -4.58     -4.58    9.683e-01   9.677e-01  -5.811e-04

-----------------------------Exchange composition------------------------------

X                1.500e+00 mol

	                               Equiv-    Equivalent      Log 
	Species             Moles      alents      Fraction     Gamma

	CaX2              4.381e-01   8.763e-01   5.842e-01    -0.415
	MgX2              1.992e-01   3.984e-01   2.656e-01    -0.397
	NaX               1.964e-01   1.964e-01   1.309e-01    -0.107
	KX                2.899e-02   2.899e-02   1.933e-02    -0.119
	NH4X              1.166e-52   1.166e-52   7.776e-53    -0.000

-----------------------------Solution composition------------------------------

	Elements           Molality       Moles

	C                 3.237e-02   3.242e-02
	Ca                1.302e-02   1.305e-02
	Cl                8.173e-04   8.186e-04
	K                 1.291e-03   1.293e-03
	Mg                1.167e-02   1.169e-02
	N                 3.579e-06   3.585e-06
	Na                4.467e-02   4.474e-02
	S                 3.811e-02   3.817e-02

----------------------------Description of solution----------------------------

                                       pH  =   6.251      Charge balance
                                       pe  =  13.029      Adjusted to redox equilibrium
      Specific Conductance (µS/cm,  25°C)  = 7213
                          Density (g/cm³)  =   1.00311
                               Volume (L)  =   1.00582
                        Viscosity (mPa s)  =   0.92841
                        Activity of water  =   0.998
                 Ionic strength (mol/kgw)  =   1.058e-01
                       Mass of water (kg)  =   1.002e+00
                 Total alkalinity (eq/kg)  =   1.687e-02
                       Total CO2 (mol/kg)  =   3.237e-02
                         Temperature (°C)  =  25.00
                  Electrical balance (eq)  =   1.454e-03
 Percent error, 100*(Cat-|An|)/(Cat+|An|)  =   1.06
                               Iterations  =   3
                                  Total H  = 1.112123e+02
                                  Total O  = 5.583215e+01

----------------------------Distribution of species----------------------------

                                               Log       Log       Log    mole V
   Species          Molality    Activity  Molality  Activity     Gamma   cm³/mol

   H+              6.817e-07   5.611e-07    -6.166    -6.251    -0.085      0.00
   OH-             2.377e-08   1.800e-08    -7.624    -7.745    -0.121     -3.72
   H2O             5.551e+01   9.979e-01     1.744    -0.001     0.000     18.07
C(-4)         0.000e+00
   CH4             0.000e+00   0.000e+00  -131.661  -131.650     0.011     35.46
C(4)          3.237e-02
   HCO3-           1.588e-02   1.246e-02    -1.799    -1.904    -0.105     24.94
   CO2             1.550e-02   1.575e-02    -1.810    -1.803     0.007     34.43
   MgHCO3+         4.552e-04   3.484e-04    -3.342    -3.458    -0.116      5.66
   NaHCO3          3.162e-04   3.320e-04    -3.500    -3.479     0.021     31.73
   CaHCO3+         1.929e-04   1.528e-04    -3.715    -3.816    -0.101      9.84
   CaCO3           5.429e-06   5.563e-06    -5.265    -5.255     0.011    -14.60
   KHCO3           4.864e-06   4.875e-06    -5.313    -5.312     0.001     41.03
   (CO2)2          4.446e-06   4.556e-06    -5.352    -5.341     0.011     68.87
   CO3-2           2.745e-06   1.042e-06    -5.561    -5.982    -0.421     -2.75
   MgCO3           2.317e-06   2.375e-06    -5.635    -5.624     0.011    -17.09
Ca            1.302e-02
   Ca+2            8.267e-03   3.179e-03    -2.083    -2.498    -0.415    -17.42
   CaSO4           4.559e-03   4.672e-03    -2.341    -2.331     0.011      7.50
   CaHCO3+         1.929e-04   1.528e-04    -3.715    -3.816    -0.101      9.84
   CaCO3           5.429e-06   5.563e-06    -5.265    -5.255     0.011    -14.60
   CaHSO4+         2.214e-08   1.723e-08    -7.655    -7.764    -0.109     (0)  
   CaOH+           1.206e-09   9.384e-10    -8.919    -9.028    -0.109     (0)  
Cl            8.173e-04
   Cl-             8.173e-04   6.232e-04    -3.088    -3.205    -0.118     18.35
   HCl             1.086e-10   1.205e-10    -9.964    -9.919     0.045     (0)  
H(0)          0.000e+00
   H2              0.000e+00   0.000e+00   -41.721   -41.710     0.011     28.61
K             1.291e-03
   K+              1.152e-03   8.758e-04    -2.938    -3.058    -0.119      9.25
   KSO4-           1.340e-04   1.101e-04    -3.873    -3.958    -0.085     14.22
   KHCO3           4.864e-06   4.875e-06    -5.313    -5.312     0.001     41.03
Mg            1.167e-02
   Mg+2            5.957e-03   2.389e-03    -2.225    -2.622    -0.397    -21.12
   MgSO4           4.923e-03   5.169e-03    -2.308    -2.287     0.021     -7.92
   MgHCO3+         4.552e-04   3.484e-04    -3.342    -3.458    -0.116      5.66
   Mg(SO4)2-2      3.334e-04   1.407e-04    -3.477    -3.852    -0.375     20.35
   MgCO3           2.317e-06   2.375e-06    -5.635    -5.624     0.011    -17.09
   MgOH+           1.933e-08   1.543e-08    -7.714    -7.812    -0.098     (0)  
N(-3)         0.000e+00
   NH4+            0.000e+00   0.000e+00   -53.103   -53.234    -0.131     18.16
   NH4SO4-         0.000e+00   0.000e+00   -53.965   -54.105    -0.140     14.25
   NH3             0.000e+00   0.000e+00   -56.238   -56.227     0.011     24.42
N(0)          8.521e-10
   N2              4.261e-10   4.366e-10    -9.371    -9.360     0.011     29.29
N(3)          3.670e-16
   NO2-            3.670e-16   2.748e-16   -15.435   -15.561    -0.126     25.24
N(5)          3.578e-06
   NO3-            3.578e-06   2.679e-06    -5.446    -5.572    -0.126     29.78
Na            4.467e-02
   Na+             3.912e-02   3.059e-02    -1.408    -1.514    -0.107     -1.08
   NaSO4-          5.234e-03   4.115e-03    -2.281    -2.386    -0.104     -4.83
   NaHCO3          3.162e-04   3.320e-04    -3.500    -3.479     0.021     31.73
O(0)          2.130e-09
   O2              1.065e-09   1.091e-09    -8.973    -8.962     0.011     30.40
S(-2)         0.000e+00
   H2S             0.000e+00   0.000e+00  -128.240  -128.229     0.011     36.27
   HS-             0.000e+00   0.000e+00  -128.799  -128.920    -0.121     20.88
   S-2             0.000e+00   0.000e+00  -135.154  -135.587    -0.433     (0)  
   (H2S)2          0.000e+00   0.000e+00  -257.747  -257.736     0.011     30.09
S(6)          3.811e-02
   SO4-2           2.259e-02   8.263e-03    -1.646    -2.083    -0.437     24.72
   NaSO4-          5.234e-03   4.115e-03    -2.281    -2.386    -0.104     -4.83
   MgSO4           4.923e-03   5.169e-03    -2.308    -2.287     0.021     -7.92
   CaSO4           4.559e-03   4.672e-03    -2.341    -2.331     0.011      7.50
   Mg(SO4)2-2      3.334e-04   1.407e-04    -3.477    -3.852    -0.375     20.35
   KSO4-           1.340e-04   1.101e-04    -3.873    -3.958    -0.085     14.22
   HSO4-           5.793e-07   4.508e-07    -6.237    -6.346    -0.109     40.54
   CaHSO4+         2.214e-08   1.723e-08    -7.655    -7.764    -0.109     (0)  
   NH4SO4-         0.000e+00   0.000e+00   -53.965   -54.105    -0.140     14.25

------------------------------Saturation indices-------------------------------

  Phase               SI** log IAP   log K(298 K,   1 atm)

  Anhydrite        -0.30     -4.58   -4.28  CaSO4
  Aragonite        -0.14     -8.48   -8.34  CaCO3
  Arcanite         -6.32     -8.20   -1.88  K2SO4
  Calcite           0.00     -8.48   -8.48  CaCO3
  CH4(g)         -128.85   -131.65   -2.80  CH4
  CO2(g)           -0.33     -1.80   -1.47  CO2
  Dolomite          0.00    -17.08  -17.08  CaMg(CO3)2
  Epsomite         -2.97     -4.71   -1.74  MgSO4:7H2O
  Gypsum            0.00     -4.58   -4.58  CaSO4:2H2O
  H2(g)           -38.61    -41.71   -3.10  H2
  H2O(g)           -1.50     -0.00    1.50  H2O
  H2S(g)         -127.23   -135.17   -7.94  H2S
  Halite           -6.29     -4.72    1.57  NaCl
  Hexahydrite      -3.14     -4.71   -1.57  MgSO4:6H2O
  Kieserite        -3.54     -4.71   -1.16  MgSO4:H2O
  Mirabilite       -3.88     -5.12   -1.24  Na2SO4:10H2O
  N2(g)            -6.18     -9.36   -3.18  N2
  NH3(g)          -58.02    -56.23    1.80  NH3
  O2(g)            -6.07     -8.96   -2.89  O2
  Sulfur          -94.55    -89.67    4.88  S
  Sylvite          -7.16     -6.26    0.90  KCl
  Thenardite       -4.81     -5.11   -0.30  Na2SO4

**For a gas, SI = log10(fugacity). Fugacity = pressure * phi / 1 atm.
  For ideal gases, phi = 1.


Cell 3.

Using solution 3.	Solution after simulation 5.
Using exchange 3.	Exchange assemblage after simulation 5.
Using pure phase assemblage 3.	Pure-phase assemblage after simulation 5.

-------------------------------Phase assemblage--------------------------------

                                                      Moles in assemblage
Phase               SI  log IAP  log K(T, P)   Initial       Final       Delta

Calcite           0.00    -8.48     -8.48    1.051e+00   1.052e+00   3.709e-04
Dolomite          0.00   -17.08    -17.08    9.743e-01   9.741e-01  -2.095e-04
Gypsum            0.00    -4.58     -4.58    9.716e-01   9.709e-01  -6.284e-04

-----------------------------Exchange composition------------------------------

X                1.500e+00 mol

	                               Equiv-    Equivalent      Log 
	Species             Moles      alents      Fraction     Gamma

	CaX2              4.353e-01   8.706e-01   5.804e-01    -0.417
	NaX               2.050e-01   2.050e-01   1.367e-01    -0.107
	MgX2              1.978e-01   3.956e-01   2.637e-01    -0.398
	KX                2.876e-02   2.876e-02   1.917e-02    -0.120
	NH4X              1.160e-52   1.160e-52   7.731e-53    -0.000

-----------------------------Solution composition------------------------------

	Elements           Molality       Moles

	C                 3.243e-02   3.248e-02
	Ca                1.294e-02   1.296e-02
	Cl                8.173e-04   8.186e-04
	K                 1.280e-03   1.282e-03
	Mg                1.161e-02   1.163e-02
	N                 3.579e-06   3.585e-06
	Na                4.662e-02   4.670e-02
	S                 3.887e-02   3.893e-02

----------------------------Description of solution----------------------------

                                       pH  =   6.255      Charge balance
                                       pe  =  13.024      Adjusted to redox equilibrium
      Specific Conductance (µS/cm,  25°C)  = 7346
                          Density (g/cm³)  =   1.00321
                               Volume (L)  =   1.00586
                        Viscosity (mPa s)  =   0.92876
                        Activity of water  =   0.998
                 Ionic strength (mol/kgw)  =   1.074e-01
                       Mass of water (kg)  =   1.002e+00
                 Total alkalinity (eq/kg)  =   1.698e-02
                       Total CO2 (mol/kg)  =   3.243e-02
                         Temperature (°C)  =  25.00
                  Electrical balance (eq)  =   1.454e-03
 Percent error, 100*(Cat-|An|)/(Cat+|An|)  =   1.04
                               Iterations  =   3
                                  Total H  = 1.112154e+02
                                  Total O  = 5.583691e+01

----------------------------Distribution of species----------------------------

                                               Log       Log       Log    mole V
   Species          Molality    Activity  Molality  Activity     Gamma   cm³/mol

   H+              6.760e-07   5.560e-07    -6.170    -6.255    -0.085      0.00
   OH-             2.403e-08   1.817e-08    -7.619    -7.741    -0.121     -3.71
   H2O             5.551e+01   9.978e-01     1.744    -0.001     0.000     18.07
C(-4)         0.000e+00
   CH4             0.000e+00   0.000e+00  -131.657  -131.646     0.011     35.46
C(4)          3.243e-02
   HCO3-           1.598e-02   1.253e-02    -1.796    -1.902    -0.106     24.94
   CO2             1.544e-02   1.570e-02    -1.811    -1.804     0.007     34.43
   MgHCO3+         4.518e-04   3.452e-04    -3.345    -3.462    -0.117      5.66
   NaHCO3          3.307e-04   3.474e-04    -3.481    -3.459     0.021     31.73
   CaHCO3+         1.913e-04   1.514e-04    -3.718    -3.820    -0.102      9.84
   CaCO3           5.427e-06   5.563e-06    -5.265    -5.255     0.011    -14.60
   KHCO3           4.836e-06   4.847e-06    -5.316    -5.315     0.001     41.03
   (CO2)2          4.413e-06   4.523e-06    -5.355    -5.345     0.011     68.87
   CO3-2           2.798e-06   1.057e-06    -5.553    -5.976    -0.423     -2.74
   MgCO3           2.317e-06   2.375e-06    -5.635    -5.624     0.011    -17.09
Ca            1.294e-02
   Ca+2            8.183e-03   3.133e-03    -2.087    -2.504    -0.417    -17.41
   CaSO4           4.558e-03   4.672e-03    -2.341    -2.330     0.011      7.50
   CaHCO3+         1.913e-04   1.514e-04    -3.718    -3.820    -0.102      9.84
   CaCO3           5.427e-06   5.563e-06    -5.265    -5.255     0.011    -14.60
   CaHSO4+         2.197e-08   1.707e-08    -7.658    -7.768    -0.109     (0)  
   CaOH+           1.201e-09   9.332e-10    -8.921    -9.030    -0.109     (0)  
Cl            8.173e-04
   Cl-             8.173e-04   6.223e-04    -3.088    -3.206    -0.118     18.35
   HCl             1.073e-10   1.192e-10    -9.970    -9.924     0.046     (0)  
H(0)          0.000e+00
   H2              0.000e+00   0.000e+00   -41.719   -41.709     0.011     28.61
K             1.280e-03
   K+              1.141e-03   8.660e-04    -2.943    -3.063    -0.120      9.25
   KSO4-           1.345e-04   1.105e-04    -3.871    -3.957    -0.085     14.22
   KHCO3           4.836e-06   4.847e-06    -5.316    -5.315     0.001     41.03
Mg            1.161e-02
   Mg+2            5.893e-03   2.354e-03    -2.230    -2.628    -0.398    -21.12
   MgSO4           4.920e-03   5.169e-03    -2.308    -2.287     0.021     -7.92
   MgHCO3+         4.518e-04   3.452e-04    -3.345    -3.462    -0.117      5.66
   Mg(SO4)2-2      3.396e-04   1.428e-04    -3.469    -3.845    -0.376     20.45
   MgCO3           2.317e-06   2.375e-06    -5.635    -5.624     0.011    -17.09
   MgOH+           1.924e-08   1.534e-08    -7.716    -7.814    -0.098     (0)  
N(-3)         0.000e+00
   NH4+            0.000e+00   0.000e+00   -53.105   -53.237    -0.132     18.16
   NH4SO4-         0.000e+00   0.000e+00   -53.961   -54.102    -0.141     14.34
   NH3             0.000e+00   0.000e+00   -56.237   -56.226     0.011     24.42
N(0)          8.466e-10
   N2              4.233e-10   4.339e-10    -9.373    -9.363     0.011     29.29
N(3)          3.681e-16
   NO2-            3.681e-16   2.752e-16   -15.434   -15.560    -0.126     25.25
N(5)          3.578e-06
   NO3-            3.578e-06   2.675e-06    -5.446    -5.573    -0.126     29.78
Na            4.662e-02
   Na+             4.076e-02   3.183e-02    -1.390    -1.497    -0.107     -1.08
   NaSO4-          5.534e-03   4.346e-03    -2.257    -2.362    -0.105     -4.74
   NaHCO3          3.307e-04   3.474e-04    -3.481    -3.459     0.021     31.73
O(0)          2.116e-09
   O2              1.058e-09   1.085e-09    -8.975    -8.965     0.011     30.40
S(-2)         0.000e+00
   H2S             0.000e+00   0.000e+00  -128.236  -128.225     0.011     36.27
   HS-             0.000e+00   0.000e+00  -128.791  -128.912    -0.121     20.88
   S-2             0.000e+00   0.000e+00  -135.140  -135.575    -0.435     (0)  
   (H2S)2          0.000e+00   0.000e+00  -257.740  -257.729     0.011     30.09
S(6)          3.887e-02
   SO4-2           2.304e-02   8.386e-03    -1.637    -2.076    -0.439     24.79
   NaSO4-          5.534e-03   4.346e-03    -2.257    -2.362    -0.105     -4.74
   MgSO4           4.920e-03   5.169e-03    -2.308    -2.287     0.021     -7.92
   CaSO4           4.558e-03   4.672e-03    -2.341    -2.330     0.011      7.50
   Mg(SO4)2-2      3.396e-04   1.428e-04    -3.469    -3.845    -0.376     20.45
   KSO4-           1.345e-04   1.105e-04    -3.871    -3.957    -0.085     14.22
   HSO4-           5.832e-07   4.533e-07    -6.234    -6.344    -0.109     40.55
   CaHSO4+         2.197e-08   1.707e-08    -7.658    -7.768    -0.109     (0)  
   NH4SO4-         0.000e+00   0.000e+00   -53.961   -54.102    -0.141     14.34

------------------------------Saturation indices-------------------------------

  Phase               SI** log IAP   log K(298 K,   1 atm)

  Anhydrite        -0.30     -4.58   -4.28  CaSO4
  Aragonite        -0.14     -8.48   -8.34  CaCO3
  Arcanite         -6.32     -8.20   -1.88  K2SO4
  Calcite           0.00     -8.48   -8.48  CaCO3
  CH4(g)         -128.84   -131.65   -2.80  CH4
  CO2(g)           -0.34     -1.80   -1.47  CO2
  Dolomite          0.00    -17.08  -17.08  CaMg(CO3)2
  Epsomite         -2.97     -4.71   -1.74  MgSO4:7H2O
  Gypsum            0.00     -4.58   -4.58  CaSO4:2H2O
  H2(g)           -38.61    -41.71   -3.10  H2
  H2O(g)           -1.50     -0.00    1.50  H2O
  H2S(g)         -127.23   -135.17   -7.94  H2S
  Halite           -6.27     -4.70    1.57  NaCl
  Hexahydrite      -3.14     -4.71   -1.57  MgSO4:6H2O
  Kieserite        -3.54     -4.71   -1.16  MgSO4:H2O
  Mirabilite       -3.84     -5.08   -1.24  Na2SO4:10H2O
  N2(g)            -6.19     -9.36   -3.18  N2
  NH3(g)          -58.02    -56.23    1.80  NH3
  O2(g)            -6.07     -8.96   -2.89  O2
  Sulfur          -94.55    -89.67    4.88  S
  Sylvite          -7.17     -6.27    0.90  KCl
  Thenardite       -4.77     -5.07   -0.30  Na2SO4

**For a gas, SI = log10(fugacity). Fugacity = pressure * phi / 1 atm.
  For ideal gases, phi = 1.


Cell 4.

Using solution 4.	Solution after simulation 5.
Using exchange 4.	Exchange assemblage after simulation 5.
Using pure phase assemblage 4.	Pure-phase assemblage after simulation 5.

-------------------------------Phase assemblage--------------------------------

                                                      Moles in assemblage
Phase               SI  log IAP  log K(T, P)   Initial       Final       Delta

Calcite          -0.00    -8.48     -8.48    1.051e+00   1.051e+00   9.559e-05
Dolomite         -0.00   -17.08    -17.08    9.746e-01   9.745e-01  -5.388e-05
Gypsum            0.00    -4.58     -4.58    9.724e-01   9.723e-01  -1.616e-04

-----------------------------Exchange composition------------------------------

X                1.500e+00 mol

	                               Equiv-    Equivalent      Log 
	Species             Moles      alents      Fraction     Gamma

	CaX2              4.342e-01   8.684e-01   5.789e-01    -0.418
	NaX               2.084e-01   2.084e-01   1.389e-01    -0.108
	MgX2              1.973e-01   3.945e-01   2.630e-01    -0.399
	KX                2.874e-02   2.874e-02   1.916e-02    -0.120
	NH4X              1.157e-52   1.157e-52   7.714e-53    -0.000

-----------------------------Solution composition------------------------------

	Elements           Molality       Moles

	C                 3.245e-02   3.250e-02
	Ca                1.290e-02   1.293e-02
	Cl                8.173e-04   8.186e-04
	K                 1.279e-03   1.282e-03
	Mg                1.158e-02   1.160e-02
	N                 3.579e-06   3.585e-06
	Na                4.740e-02   4.748e-02
	S                 3.917e-02   3.924e-02

----------------------------Description of solution----------------------------

                                       pH  =   6.257      Charge balance
                                       pe  =  13.023      Adjusted to redox equilibrium
      Specific Conductance (µS/cm,  25°C)  = 7399
                          Density (g/cm³)  =   1.00325
                               Volume (L)  =   1.00587
                        Viscosity (mPa s)  =   0.92891
                        Activity of water  =   0.998
                 Ionic strength (mol/kgw)  =   1.081e-01
                       Mass of water (kg)  =   1.002e+00
                 Total alkalinity (eq/kg)  =   1.703e-02
                       Total CO2 (mol/kg)  =   3.245e-02
                         Temperature (°C)  =  25.00
                  Electrical balance (eq)  =   1.454e-03
 Percent error, 100*(Cat-|An|)/(Cat+|An|)  =   1.03
                               Iterations  =   2
                                  Total H  = 1.112166e+02
                                  Total O  = 5.583882e+01

----------------------------Distribution of species----------------------------

                                               Log       Log       Log    mole V
   Species          Molality    Activity  Molality  Activity     Gamma   cm³/mol

   H+              6.738e-07   5.540e-07    -6.171    -6.257    -0.085      0.00
   OH-             2.413e-08   1.823e-08    -7.618    -7.739    -0.122     -3.71
   H2O             5.551e+01   9.978e-01     1.744    -0.001     0.000     18.07
C(-4)         0.000e+00
   CH4             0.000e+00   0.000e+00  -131.656  -131.645     0.011     35.46
C(4)          3.245e-02
   HCO3-           1.603e-02   1.256e-02    -1.795    -1.901    -0.106     24.94
   CO2             1.542e-02   1.568e-02    -1.812    -1.805     0.007     34.43
   MgHCO3+         4.504e-04   3.440e-04    -3.346    -3.463    -0.117      5.66
   NaHCO3          3.364e-04   3.536e-04    -3.473    -3.452     0.022     31.73
   CaHCO3+         1.907e-04   1.509e-04    -3.720    -3.821    -0.102      9.84
   CaCO3           5.426e-06   5.563e-06    -5.265    -5.255     0.011    -14.60
   KHCO3           4.837e-06   4.848e-06    -5.315    -5.314     0.001     41.03
   (CO2)2          4.400e-06   4.511e-06    -5.357    -5.346     0.011     68.87
   CO3-2           2.820e-06   1.063e-06    -5.550    -5.973    -0.424     -2.73
   MgCO3           2.316e-06   2.375e-06    -5.635    -5.624     0.011    -17.09
Ca            1.290e-02
   Ca+2            8.150e-03   3.115e-03    -2.089    -2.507    -0.418    -17.41
   CaSO4           4.557e-03   4.672e-03    -2.341    -2.330     0.011      7.50
   CaHCO3+         1.907e-04   1.509e-04    -3.720    -3.821    -0.102      9.84
   CaCO3           5.426e-06   5.563e-06    -5.265    -5.255     0.011    -14.60
   CaHSO4+         2.190e-08   1.701e-08    -7.660    -7.769    -0.110     (0)  
   CaOH+           1.199e-09   9.311e-10    -8.921    -9.031    -0.110     (0)  
Cl            8.173e-04
   Cl-             8.173e-04   6.219e-04    -3.088    -3.206    -0.119     18.35
   HCl             1.068e-10   1.187e-10    -9.972    -9.926     0.046     (0)  
H(0)          0.000e+00
   H2              0.000e+00   0.000e+00   -41.719   -41.708     0.011     28.61
K             1.279e-03
   K+              1.140e-03   8.643e-04    -2.943    -3.063    -0.120      9.25
   KSO4-           1.350e-04   1.109e-04    -3.870    -3.955    -0.085     14.22
   KHCO3           4.837e-06   4.848e-06    -5.315    -5.314     0.001     41.03
Mg            1.158e-02
   Mg+2            5.868e-03   2.341e-03    -2.231    -2.631    -0.399    -21.11
   MgSO4           4.918e-03   5.169e-03    -2.308    -2.287     0.022     -7.92
   MgHCO3+         4.504e-04   3.440e-04    -3.346    -3.463    -0.117      5.66
   Mg(SO4)2-2      3.420e-04   1.436e-04    -3.466    -3.843    -0.377     20.48
   MgCO3           2.316e-06   2.375e-06    -5.635    -5.624     0.011    -17.09
   MgOH+           1.921e-08   1.531e-08    -7.717    -7.815    -0.099     (0)  
N(-3)         0.000e+00
   NH4+            0.000e+00   0.000e+00   -53.106   -53.238    -0.132     18.16
   NH4SO4-         0.000e+00   0.000e+00   -53.959   -54.100    -0.141     14.38
   NH3             0.000e+00   0.000e+00   -56.237   -56.226     0.011     24.42
N(0)          8.444e-10
   N2              4.222e-10   4.328e-10    -9.374    -9.364     0.011     29.29
N(3)          3.686e-16
   NO2-            3.686e-16   2.753e-16   -15.433   -15.560    -0.127     25.25
N(5)          3.578e-06
   NO3-            3.578e-06   2.673e-06    -5.446    -5.573    -0.127     29.78
Na            4.740e-02
   Na+             4.141e-02   3.233e-02    -1.383    -1.490    -0.108     -1.08
   NaSO4-          5.655e-03   4.438e-03    -2.248    -2.353    -0.105     -4.71
   NaHCO3          3.364e-04   3.536e-04    -3.473    -3.452     0.022     31.73
O(0)          2.111e-09
   O2              1.055e-09   1.082e-09    -8.977    -8.966     0.011     30.40
S(-2)         0.000e+00
   H2S             0.000e+00   0.000e+00  -128.235  -128.224     0.011     36.27
   HS-             0.000e+00   0.000e+00  -128.787  -128.909    -0.122     20.88
   S-2             0.000e+00   0.000e+00  -135.135  -135.570    -0.436     (0)  
   (H2S)2          0.000e+00   0.000e+00  -257.737  -257.726     0.011     30.09
S(6)          3.917e-02
   SO4-2           2.322e-02   8.435e-03    -1.634    -2.074    -0.440     24.82
   NaSO4-          5.655e-03   4.438e-03    -2.248    -2.353    -0.105     -4.71
   MgSO4           4.918e-03   5.169e-03    -2.308    -2.287     0.022     -7.92
   CaSO4           4.557e-03   4.672e-03    -2.341    -2.330     0.011      7.50
   Mg(SO4)2-2      3.420e-04   1.436e-04    -3.466    -3.843    -0.377     20.48
   KSO4-           1.350e-04   1.109e-04    -3.870    -3.955    -0.085     14.22
   HSO4-           5.848e-07   4.543e-07    -6.233    -6.343    -0.110     40.55
   CaHSO4+         2.190e-08   1.701e-08    -7.660    -7.769    -0.110     (0)  
   NH4SO4-         0.000e+00   0.000e+00   -53.959   -54.100    -0.141     14.38

------------------------------Saturation indices-------------------------------

  Phase               SI** log IAP   log K(298 K,   1 atm)

  Anhydrite        -0.30     -4.58   -4.28  CaSO4
  Aragonite        -0.14     -8.48   -8.34  CaCO3
  Arcanite         -6.32     -8.20   -1.88  K2SO4
  Calcite          -0.00     -8.48   -8.48  CaCO3
  CH4(g)         -128.84   -131.64   -2.80  CH4
  CO2(g)           -0.34     -1.80   -1.47  CO2
  Dolomite         -0.00    -17.08  -17.08  CaMg(CO3)2
  Epsomite         -2.97     -4.71   -1.74  MgSO4:7H2O
  Gypsum            0.00     -4.58   -4.58  CaSO4:2H2O
  H2(g)           -38.61    -41.71   -3.10  H2
  H2O(g)           -1.50     -0.00    1.50  H2O
  H2S(g)         -127.23   -135.17   -7.94  H2S
  Halite           -6.27     -4.70    1.57  NaCl
  Hexahydrite      -3.14     -4.71   -1.57  MgSO4:6H2O
  Kieserite        -3.54     -4.71   -1.16  MgSO4:H2O
  Mirabilite       -3.82     -5.06   -1.24  Na2SO4:10H2O
  N2(g)            -6.19     -9.36   -3.18  N2
  NH3(g)          -58.02    -56.23    1.80  NH3
  O2(g)            -6.07     -8.97   -2.89  O2
  Sulfur          -94.55    -89.67    4.88  S
  Sylvite          -7.17     -6.27    0.90  KCl
  Thenardite       -4.75     -5.05   -0.30  Na2SO4

**For a gas, SI = log10(fugacity). Fugacity = pressure * phi / 1 atm.
  For ideal gases, phi = 1.


Cell 5.

Using solution 5.	Solution after simulation 5.
Using exchange 5.	Exchange assemblage after simulation 5.
Using pure phase assemblage 5.	Pure-phase assemblage after simulation 5.

-------------------------------Phase assemblage--------------------------------

                                                      Moles in assemblage
Phase               SI  log IAP  log K(T, P)   Initial       Final       Delta

Calcite           0.00    -8.48     -8.48    1.046e+00   1.051e+00   4.800e-03
Dolomite          0.00   -17.08    -17.08    9.770e-01   9.746e-01  -2.400e-03
Gypsum            0.00    -4.58     -4.58    9.725e-01   9.725e-01  -1.297e-05

-----------------------------Exchange composition------------------------------

X                1.500e+00 mol

	                               Equiv-    Equivalent      Log 
	Species             Moles      alents      Fraction     Gamma

	CaX2              4.340e-01   8.680e-01   5.787e-01    -0.418
	NaX               2.089e-01   2.089e-01   1.393e-01    -0.108
	MgX2              1.972e-01   3.943e-01   2.629e-01    -0.399
	KX                2.874e-02   2.874e-02   1.916e-02    -0.120
	NH4X              1.157e-52   1.157e-52   7.711e-53     0.000

-----------------------------Solution composition------------------------------

	Elements           Molality       Moles

	C                 3.245e-02   3.251e-02
	Ca                1.290e-02   1.292e-02
	Cl                8.173e-04   8.186e-04
	K                 1.279e-03   1.282e-03
	Mg                1.158e-02   1.160e-02
	N                 3.579e-06   3.585e-06
	Na                4.752e-02   4.760e-02
	S                 3.922e-02   3.929e-02

----------------------------Description of solution----------------------------

                                       pH  =   6.257      Charge balance
                                       pe  =  13.022      Adjusted to redox equilibrium
      Specific Conductance (µS/cm,  25°C)  = 7408
                          Density (g/cm³)  =   1.00326
                               Volume (L)  =   1.00588
                        Viscosity (mPa s)  =   0.92893
                        Activity of water  =   0.998
                 Ionic strength (mol/kgw)  =   1.082e-01
                       Mass of water (kg)  =   1.002e+00
                 Total alkalinity (eq/kg)  =   1.704e-02
                       Total CO2 (mol/kg)  =   3.245e-02
                         Temperature (°C)  =  25.00
                  Electrical balance (eq)  =   1.454e-03
 Percent error, 100*(Cat-|An|)/(Cat+|An|)  =   1.03
                               Iterations  =   5
                                  Total H  = 1.112168e+02
                                  Total O  = 5.583913e+01

----------------------------Distribution of species----------------------------

                                               Log       Log       Log    mole V
   Species          Molality    Activity  Molality  Activity     Gamma   cm³/mol

   H+              6.734e-07   5.537e-07    -6.172    -6.257    -0.085      0.00
   OH-             2.414e-08   1.824e-08    -7.617    -7.739    -0.122     -3.71
   H2O             5.551e+01   9.978e-01     1.744    -0.001     0.000     18.07
C(-4)         0.000e+00
   CH4             0.000e+00   0.000e+00  -131.655  -131.645     0.011     35.46
C(4)          3.245e-02
   HCO3-           1.603e-02   1.256e-02    -1.795    -1.901    -0.106     24.94
   CO2             1.542e-02   1.567e-02    -1.812    -1.805     0.007     34.43
   MgHCO3+         4.502e-04   3.438e-04    -3.347    -3.464    -0.117      5.66
   NaHCO3          3.373e-04   3.546e-04    -3.472    -3.450     0.022     31.73
   CaHCO3+         1.906e-04   1.508e-04    -3.720    -3.822    -0.102      9.84
   CaCO3           5.426e-06   5.563e-06    -5.266    -5.255     0.011    -14.60
   KHCO3           4.838e-06   4.849e-06    -5.315    -5.314     0.001     41.03
   (CO2)2          4.398e-06   4.509e-06    -5.357    -5.346     0.011     68.87
   CO3-2           2.823e-06   1.064e-06    -5.549    -5.973    -0.424     -2.73
   MgCO3           2.316e-06   2.375e-06    -5.635    -5.624     0.011    -17.09
Ca            1.290e-02
   Ca+2            8.145e-03   3.112e-03    -2.089    -2.507    -0.418    -17.41
   CaSO4           4.557e-03   4.672e-03    -2.341    -2.330     0.011      7.50
   CaHCO3+         1.906e-04   1.508e-04    -3.720    -3.822    -0.102      9.84
   CaCO3           5.426e-06   5.563e-06    -5.266    -5.255     0.011    -14.60
   CaHSO4+         2.189e-08   1.700e-08    -7.660    -7.769    -0.110     (0)  
   CaOH+           1.198e-09   9.308e-10    -8.921    -9.031    -0.110     (0)  
Cl            8.173e-04
   Cl-             8.173e-04   6.219e-04    -3.088    -3.206    -0.119     18.35
   HCl             1.067e-10   1.186e-10    -9.972    -9.926     0.046     (0)  
H(0)          0.000e+00
   H2              0.000e+00   0.000e+00   -41.719   -41.708     0.011     28.61
K             1.279e-03
   K+              1.139e-03   8.641e-04    -2.943    -3.063    -0.120      9.25
   KSO4-           1.351e-04   1.110e-04    -3.869    -3.955    -0.085     14.22
   KHCO3           4.838e-06   4.849e-06    -5.315    -5.314     0.001     41.03
Mg            1.158e-02
   Mg+2            5.864e-03   2.339e-03    -2.232    -2.631    -0.399    -21.11
   MgSO4           4.918e-03   5.169e-03    -2.308    -2.287     0.022     -7.92
   MgHCO3+         4.502e-04   3.438e-04    -3.347    -3.464    -0.117      5.66
   Mg(SO4)2-2      3.424e-04   1.438e-04    -3.465    -3.842    -0.377     20.49
   MgCO3           2.316e-06   2.375e-06    -5.635    -5.624     0.011    -17.09
   MgOH+           1.920e-08   1.530e-08    -7.717    -7.815    -0.099     (0)  
N(-3)         0.000e+00
   NH4+            0.000e+00   0.000e+00   -53.107   -53.239    -0.132     18.16
   NH4SO4-         0.000e+00   0.000e+00   -53.959   -54.100    -0.141     14.39
   NH3             0.000e+00   0.000e+00   -56.237   -56.226     0.011     24.42
N(0)          8.440e-10
   N2              4.220e-10   4.327e-10    -9.375    -9.364     0.011     29.29
N(3)          3.686e-16
   NO2-            3.686e-16   2.754e-16   -15.433   -15.560    -0.127     25.25
N(5)          3.578e-06
   NO3-            3.578e-06   2.673e-06    -5.446    -5.573    -0.127     29.78
Na            4.752e-02
   Na+             4.151e-02   3.241e-02    -1.382    -1.489    -0.108     -1.08
   NaSO4-          5.674e-03   4.453e-03    -2.246    -2.351    -0.105     -4.70
   NaHCO3          3.373e-04   3.546e-04    -3.472    -3.450     0.022     31.73
O(0)          2.110e-09
   O2              1.055e-09   1.082e-09    -8.977    -8.966     0.011     30.40
S(-2)         0.000e+00
   H2S             0.000e+00   0.000e+00  -128.234  -128.224     0.011     36.27
   HS-             0.000e+00   0.000e+00  -128.787  -128.908    -0.122     20.88
   S-2             0.000e+00   0.000e+00  -135.134  -135.570    -0.436     (0)  
   (H2S)2          0.000e+00   0.000e+00  -257.736  -257.725     0.011     30.09
S(6)          3.922e-02
   SO4-2           2.325e-02   8.442e-03    -1.634    -2.074    -0.440     24.82
   NaSO4-          5.674e-03   4.453e-03    -2.246    -2.351    -0.105     -4.70
   MgSO4           4.918e-03   5.169e-03    -2.308    -2.287     0.022     -7.92
   CaSO4           4.557e-03   4.672e-03    -2.341    -2.330     0.011      7.50
   Mg(SO4)2-2      3.424e-04   1.438e-04    -3.465    -3.842    -0.377     20.49
   KSO4-           1.351e-04   1.110e-04    -3.869    -3.955    -0.085     14.22
   HSO4-           5.850e-07   4.545e-07    -6.233    -6.343    -0.110     40.55
   CaHSO4+         2.189e-08   1.700e-08    -7.660    -7.769    -0.110     (0)  
   NH4SO4-         0.000e+00   0.000e+00   -53.959   -54.100    -0.141     14.39

------------------------------Saturation indices-------------------------------

  Phase               SI** log IAP   log K(298 K,   1 atm)

  Anhydrite        -0.30     -4.58   -4.28  CaSO4
  Aragonite        -0.14     -8.48   -8.34  CaCO3
  Arcanite         -6.32     -8.20   -1.88  K2SO4
  Calcite           0.00     -8.48   -8.48  CaCO3
  CH4(g)         -128.84   -131.64   -2.80  CH4
  CO2(g)           -0.34     -1.80   -1.47  CO2
  Dolomite          0.00    -17.08  -17.08  CaMg(CO3)2
  Epsomite         -2.97     -4.71   -1.74  MgSO4:7H2O
  Gypsum            0.00     -4.58   -4.58  CaSO4:2H2O
  H2(g)           -38.61    -41.71   -3.10  H2
  H2O(g)           -1.50     -0.00    1.50  H2O
  H2S(g)         -127.23   -135.17   -7.94  H2S
  Halite           -6.27     -4.70    1.57  NaCl
  Hexahydrite      -3.14     -4.71   -1.57  MgSO4:6H2O
  Kieserite        -3.54     -4.71   -1.16  MgSO4:H2O
  Mirabilite       -3.82     -5.06   -1.24  Na2SO4:10H2O
  N2(g)            -6.19     -9.36   -3.18  N2
  NH3(g)          -58.02    -56.23    1.80  NH3
  O2(g)            -6.07     -8.97   -2.89  O2
  Sulfur          -94.55    -89.67    4.88  S
  Sylvite          -7.17     -6.27    0.90  KCl
  Thenardite       -4.75     -5.05   -0.30  Na2SO4

**For a gas, SI = log10(fugacity). Fugacity = pressure * phi / 1 atm.
  For ideal gases, phi = 1.


Cell 6.

Using solution 6.	Solution after simulation 5.
Using exchange 6.	Exchange assemblage after simulation 5.
Using pure phase assemblage 6.	Pure-phase assemblage after simulation 5.

-------------------------------Phase assemblage--------------------------------

                                                      Moles in assemblage
Phase               SI  log IAP  log K(T, P)   Initial       Final       Delta

Calcite           0.00    -8.48     -8.48    1.052e+00   1.052e+00   1.881e-08
Dolomite          0.01   -17.07    -17.08    9.746e-01   9.746e-01   0.000e+00
Gypsum            0.00    -4.58     -4.58    9.721e-01   9.730e-01   9.454e-04

-----------------------------Exchange composition------------------------------

X                1.500e+00 mol

	                               Equiv-    Equivalent      Log 
	Species             Moles      alents      Fraction     Gamma

	CaX2              4.399e-01   8.798e-01   5.865e-01    -0.479
	MgX2              2.005e-01   4.011e-01   2.674e-01    -0.453
	NaX               1.897e-01   1.897e-01   1.265e-01    -0.123
	KX                2.942e-02   2.942e-02   1.961e-02    -0.142

-----------------------------Solution composition------------------------------

	Elements           Molality       Moles

	C                 3.409e-05   3.413e-05
	Ca                2.463e-02   2.466e-02
	Cl                9.990e-02   1.000e-01
	K                 1.918e-03   1.919e-03
	Mg                1.963e-02   1.964e-02
	Na                6.263e-02   6.269e-02
	S                 2.654e-02   2.657e-02

----------------------------Description of solution----------------------------

                                       pH  =   8.799      Charge balance
                                       pe  =   9.142      Adjusted to redox equilibrium
      Specific Conductance (µS/cm,  25°C)  = 13454
                          Density (g/cm³)  =   1.00459
                               Volume (L)  =   1.00543
                        Viscosity (mPa s)  =   0.91391
                        Activity of water  =   0.996
                 Ionic strength (mol/kgw)  =   1.778e-01
                       Mass of water (kg)  =   1.001e+00
                 Total alkalinity (eq/kg)  =   6.820e-05
                       Total CO2 (mol/kg)  =   3.409e-05
                         Temperature (°C)  =  25.00
                  Electrical balance (eq)  =  -9.570e-11
 Percent error, 100*(Cat-|An|)/(Cat+|An|)  =  -0.00
                               Iterations  =  15
                                  Total H  = 1.111187e+02
                                  Total O  = 5.566573e+01

----------------------------Distribution of species----------------------------

                                               Log       Log       Log    mole V
   Species          Molality    Activity  Molality  Activity     Gamma   cm³/mol

   OH-             8.868e-06   6.353e-06    -5.052    -5.197    -0.145     -3.55
   H+              1.979e-09   1.587e-09    -8.704    -8.799    -0.096      0.00
   H2O             5.551e+01   9.962e-01     1.744    -0.002     0.000     18.07
C(-4)         0.000e+00
   CH4             0.000e+00   0.000e+00  -126.379  -126.362     0.018     35.46
C(4)          3.409e-05
   HCO3-           2.227e-05   1.678e-05    -4.652    -4.775    -0.123     25.09
   CaCO3           5.340e-06   5.563e-06    -5.272    -5.255     0.018    -14.60
   MgCO3           2.328e-06   2.425e-06    -5.633    -5.615     0.018    -17.09
   CO3-2           1.539e-06   4.957e-07    -5.813    -6.305    -0.492     -2.33
   MgHCO3+         1.384e-06   1.007e-06    -5.859    -5.997    -0.138      5.70
   NaHCO3          5.971e-07   6.481e-07    -6.224    -6.188     0.036     31.73
   CaHCO3+         5.666e-07   4.323e-07    -6.247    -6.364    -0.117      9.87
   CO2             5.849e-08   6.010e-08    -7.233    -7.221     0.012     34.43
   KHCO3           9.797e-09   9.835e-09    -8.009    -8.007     0.002     41.03
   (CO2)2          6.363e-17   6.629e-17   -16.196   -16.179     0.018     68.87
Ca            2.463e-02
   Ca+2            2.013e-02   6.681e-03    -1.696    -2.175    -0.479    -17.25
   CaSO4           4.499e-03   4.687e-03    -2.347    -2.329     0.018      7.50
   CaCO3           5.340e-06   5.563e-06    -5.272    -5.255     0.018    -14.60
   CaOH+           9.260e-07   6.959e-07    -6.033    -6.157    -0.124     (0)  
   CaHCO3+         5.666e-07   4.323e-07    -6.247    -6.364    -0.117      9.87
   CaHSO4+         6.507e-11   4.890e-11   -10.187   -10.311    -0.124     (0)  
Cl            9.990e-02
   Cl-             9.990e-02   7.236e-02    -1.000    -1.140    -0.140     18.43
   HCl             3.324e-11   3.957e-11   -10.478   -10.403     0.076     (0)  
H(0)          1.777e-39
   H2              8.886e-40   9.258e-40   -39.051   -39.033     0.018     28.61
K             1.918e-03
   K+              1.821e-03   1.312e-03    -2.740    -2.882    -0.142      9.32
   KSO4-           9.675e-05   7.878e-05    -4.014    -4.104    -0.089     14.10
   KHCO3           9.797e-09   9.835e-09    -8.009    -8.007     0.002     41.03
Mg            1.963e-02
   Mg+2            1.454e-02   5.128e-03    -1.837    -2.290    -0.453    -20.96
   MgSO4           4.880e-03   5.296e-03    -2.312    -2.276     0.036     -7.92
   Mg(SO4)2-2      1.846e-04   6.882e-05    -3.734    -4.162    -0.428     23.65
   MgOH+           1.516e-05   1.168e-05    -4.819    -4.932    -0.113     (0)  
   MgCO3           2.328e-06   2.425e-06    -5.633    -5.615     0.018    -17.09
   MgHCO3+         1.384e-06   1.007e-06    -5.859    -5.997    -0.138      5.70
Na            6.263e-02
   Na+             5.885e-02   4.435e-02    -1.230    -1.353    -0.123     -0.96
   NaSO4-          3.773e-03   2.848e-03    -2.423    -2.545    -0.122     -1.71
   NaHCO3          5.971e-07   6.481e-07    -6.224    -6.188     0.036     31.73
O(0)          9.267e-15
   O2              4.634e-15   4.827e-15   -14.334   -14.316     0.018     30.40
S(-2)         0.000e+00
   HS-             0.000e+00   0.000e+00  -120.936  -121.081    -0.145     20.97
   H2S             0.000e+00   0.000e+00  -122.956  -122.938     0.018     36.27
   S-2             0.000e+00   0.000e+00  -124.691  -125.199    -0.508     (0)  
   (H2S)2          0.000e+00   0.000e+00  -247.173  -247.155     0.018     30.09
S(6)          2.654e-02
   SO4-2           1.292e-02   3.945e-03    -1.889    -2.404    -0.515     27.49
   MgSO4           4.880e-03   5.296e-03    -2.312    -2.276     0.036     -7.92
   CaSO4           4.499e-03   4.687e-03    -2.347    -2.329     0.018      7.50
   NaSO4-          3.773e-03   2.848e-03    -2.423    -2.545    -0.122     -1.71
   Mg(SO4)2-2      1.846e-04   6.882e-05    -3.734    -4.162    -0.428     23.65
   KSO4-           9.675e-05   7.878e-05    -4.014    -4.104    -0.089     14.10
   HSO4-           8.101e-10   6.088e-10    -9.091    -9.216    -0.124     40.63
   CaHSO4+         6.507e-11   4.890e-11   -10.187   -10.311    -0.124     (0)  

------------------------------Saturation indices-------------------------------

  Phase               SI** log IAP   log K(298 K,   1 atm)

  Anhydrite        -0.30     -4.58   -4.28  CaSO4
  Aragonite        -0.14     -8.48   -8.34  CaCO3
  Arcanite         -6.29     -8.17   -1.88  K2SO4
  Calcite           0.00     -8.48   -8.48  CaCO3
  CH4(g)         -123.56   -126.36   -2.80  CH4
  CO2(g)           -5.75     -7.22   -1.47  CO2
  Dolomite          0.01    -17.07  -17.08  CaMg(CO3)2
  Epsomite         -2.97     -4.71   -1.74  MgSO4:7H2O
  Gypsum            0.00     -4.58   -4.58  CaSO4:2H2O
[...]
   CaHSO4+         7.423e-09   5.831e-09    -8.129    -8.234    -0.105     (0)  
   NH4SO4-         0.000e+00   0.000e+00   -54.475   -54.607    -0.132     13.45

------------------------------Saturation indices-------------------------------

  Phase               SI** log IAP   log K(298 K,   1 atm)

  Anhydrite        -0.30     -4.58   -4.28  CaSO4
  Aragonite        -0.14     -8.48   -8.34  CaCO3
  Arcanite         -6.31     -8.19   -1.88  K2SO4
  Calcite           0.00     -8.48   -8.48  CaCO3
  CH4(g)         -130.17   -132.98   -2.80  CH4
  CO2(g)           -1.26     -2.72   -1.47  CO2
  Dolomite          0.00    -17.08  -17.08  CaMg(CO3)2
  Epsomite         -2.97     -4.71   -1.74  MgSO4:7H2O
  Gypsum            0.00     -4.58   -4.58  CaSO4:2H2O
  H2(g)           -38.71    -41.81   -3.10  H2
  H2O(g)           -1.50     -0.00    1.50  H2O
  H2S(g)         -128.56   -136.50   -7.94  H2S
  Halite           -6.69     -5.12    1.57  NaCl
  Hexahydrite      -3.14     -4.71   -1.57  MgSO4:6H2O
  Kieserite        -3.54     -4.71   -1.16  MgSO4:H2O
  Mirabilite       -4.10     -5.34   -1.24  Na2SO4:10H2O
  N2(g)            -5.98     -9.16   -3.18  N2
  NH3(g)          -58.07    -56.28    1.80  NH3
  O2(g)            -5.87     -8.76   -2.89  O2
  Sulfur          -95.78    -90.90    4.88  S
  Sylvite          -7.45     -6.55    0.90  KCl
  Thenardite       -5.03     -5.33   -0.30  Na2SO4

**For a gas, SI = log10(fugacity). Fugacity = pressure * phi / 1 atm.
  For ideal gases, phi = 1.


Cell 29.

Using solution 29.	Solution after simulation 5.
Using exchange 29.	Exchange assemblage after simulation 5.
Using pure phase assemblage 29.	Pure-phase assemblage after simulation 5.

-------------------------------Phase assemblage--------------------------------

                                                      Moles in assemblage
Phase               SI  log IAP  log K(T, P)   Initial       Final       Delta

Calcite           0.00    -8.48     -8.48    1.052e+00   1.052e+00   0.000e+00
Dolomite          0.00   -17.08    -17.08    9.746e-01   9.746e-01   0.000e+00
Gypsum            0.00    -4.58     -4.58    9.669e-01   9.669e-01   0.000e+00

-----------------------------Exchange composition------------------------------

X                1.500e+00 mol

	                               Equiv-    Equivalent      Log 
	Species             Moles      alents      Fraction     Gamma

	CaX2              4.510e-01   9.021e-01   6.014e-01    -0.399
	MgX2              2.058e-01   4.117e-01   2.745e-01    -0.382
	NaX               1.564e-01   1.564e-01   1.043e-01    -0.103
	KX                2.978e-02   2.978e-02   1.985e-02    -0.114
	NH4X              4.950e-53   4.950e-53   3.300e-53    -0.124

-----------------------------Solution composition------------------------------

	Elements           Molality       Moles

	C                 7.735e-03   7.744e-03
	Ca                1.226e-02   1.228e-02
	Cl                4.231e-04   4.237e-04
	K                 1.259e-03   1.261e-03
	Mg                1.095e-02   1.097e-02
	N                 2.356e-05   2.359e-05
	Na                3.370e-02   3.374e-02
	S                 3.697e-02   3.701e-02

----------------------------Description of solution----------------------------

                                       pH  =   6.721      Charge balance
                                       pe  =  12.610      Adjusted to redox equilibrium
      Specific Conductance (µS/cm,  25°C)  = 6180
                          Density (g/cm³)  =   1.00215
                               Volume (L)  =   1.00465
                        Viscosity (mPa s)  =   0.91457
                        Activity of water  =   0.998
                 Ionic strength (mol/kgw)  =   9.257e-02
                       Mass of water (kg)  =   1.001e+00
                 Total alkalinity (eq/kg)  =   5.884e-03
                       Total CO2 (mol/kg)  =   7.735e-03
                         Temperature (°C)  =  25.00
                  Electrical balance (eq)  =   1.136e-03
 Percent error, 100*(Cat-|An|)/(Cat+|An|)  =   1.00
                               Iterations  =   1
                                  Total H  = 1.111532e+02
                                  Total O  = 5.574316e+01

----------------------------Distribution of species----------------------------

                                               Log       Log       Log    mole V
   Species          Molality    Activity  Molality  Activity     Gamma   cm³/mol

   H+              2.295e-07   1.901e-07    -6.639    -6.721    -0.082      0.00
   OH-             6.926e-08   5.315e-08    -7.160    -7.274    -0.115     -3.75
   H2O             5.551e+01   9.985e-01     1.744    -0.001     0.000     18.07
C(-4)         0.000e+00
   CH4             0.000e+00   0.000e+00  -132.986  -132.977     0.009     35.46
C(4)          7.735e-03
   HCO3-           5.559e-03   4.408e-03    -2.255    -2.356    -0.101     24.90
   CO2             1.861e-03   1.887e-03    -2.730    -2.724     0.006     34.43
   MgHCO3+         1.524e-04   1.181e-04    -3.817    -3.928    -0.111      5.65
   NaHCO3          8.568e-05   8.942e-05    -4.067    -4.049     0.019     31.73
   CaHCO3+         6.475e-05   5.179e-05    -4.189    -4.286    -0.097      9.83
   CaCO3           5.446e-06   5.563e-06    -5.264    -5.255     0.009    -14.60
   CO3-2           2.751e-06   1.087e-06    -5.561    -5.964    -0.403     -2.84
   MgCO3           2.325e-06   2.375e-06    -5.634    -5.624     0.009    -17.09
   KHCO3           1.695e-06   1.699e-06    -5.771    -5.770     0.001     41.03
   (CO2)2          6.398e-08   6.536e-08    -7.194    -7.185     0.009     68.87
Ca            1.226e-02
   Ca+2            7.627e-03   3.046e-03    -2.118    -2.516    -0.399    -17.46
   CaSO4           4.567e-03   4.666e-03    -2.340    -2.331     0.009      7.50
   CaHCO3+         6.475e-05   5.179e-05    -4.189    -4.286    -0.097      9.83
   CaCO3           5.446e-06   5.563e-06    -5.264    -5.255     0.009    -14.60
   CaHSO4+         7.423e-09   5.831e-09    -8.129    -8.234    -0.105     (0)  
   CaOH+           3.380e-09   2.655e-09    -8.471    -8.576    -0.105     (0)  
Cl            4.231e-04
   Cl-             4.231e-04   3.267e-04    -3.374    -3.486    -0.112     18.33
   HCl             1.954e-11   2.140e-11   -10.709   -10.670     0.039     (0)  
H(0)          0.000e+00
   H2              0.000e+00   0.000e+00   -41.820   -41.811     0.009     28.61
K             1.259e-03
   K+              1.121e-03   8.627e-04    -2.951    -3.064    -0.114      9.23
   KSO4-           1.369e-04   1.131e-04    -3.863    -3.947    -0.083     14.23
   KHCO3           1.695e-06   1.699e-06    -5.771    -5.770     0.001     41.03
Mg            1.095e-02
   Mg+2            5.517e-03   2.289e-03    -2.258    -2.640    -0.382    -21.16
   MgSO4           4.947e-03   5.162e-03    -2.306    -2.287     0.019     -7.92
   Mg(SO4)2-2      3.362e-04   1.465e-04    -3.473    -3.834    -0.361     19.53
   MgHCO3+         1.524e-04   1.181e-04    -3.817    -3.928    -0.111      5.65
   MgCO3           2.325e-06   2.375e-06    -5.634    -5.624     0.009    -17.09
   MgOH+           5.420e-08   4.365e-08    -7.266    -7.360    -0.094     (0)  
N(-3)         0.000e+00
   NH4+            0.000e+00   0.000e+00   -53.630   -53.754    -0.124     18.14
   NH4SO4-         0.000e+00   0.000e+00   -54.475   -54.607    -0.132     13.45
   NH3             0.000e+00   0.000e+00   -56.287   -56.277     0.009     24.42
N(0)          1.363e-09
   N2              6.815e-10   6.962e-10    -9.167    -9.157     0.009     29.29
N(3)          1.914e-15
   NO2-            1.914e-15   1.454e-15   -14.718   -14.838    -0.119     25.22
N(5)          2.356e-05
   NO3-            2.356e-05   1.790e-05    -4.628    -4.747    -0.119     29.75
Na            3.370e-02
   Na+             2.950e-02   2.329e-02    -1.530    -1.633    -0.103     -1.11
   NaSO4-          4.113e-03   3.266e-03    -2.386    -2.486    -0.100     -5.58
   NaHCO3          8.568e-05   8.942e-05    -4.067    -4.049     0.019     31.73
O(0)          3.408e-09
   O2              1.704e-09   1.740e-09    -8.769    -8.759     0.009     30.40
S(-2)         0.000e+00
   H2S             0.000e+00   0.000e+00  -129.566  -129.556     0.009     36.27
   HS-             0.000e+00   0.000e+00  -129.662  -129.777    -0.115     20.86
   S-2             0.000e+00   0.000e+00  -135.560  -135.974    -0.414     (0)  
   (H2S)2          0.000e+00   0.000e+00  -260.400  -260.391     0.009     30.09
S(6)          3.697e-02
   SO4-2           2.253e-02   8.613e-03    -1.647    -2.065    -0.418     24.11
   MgSO4           4.947e-03   5.162e-03    -2.306    -2.287     0.019     -7.92
   CaSO4           4.567e-03   4.666e-03    -2.340    -2.331     0.009      7.50
   NaSO4-          4.113e-03   3.266e-03    -2.386    -2.486    -0.100     -5.58
   Mg(SO4)2-2      3.362e-04   1.465e-04    -3.473    -3.834    -0.361     19.53
   KSO4-           1.369e-04   1.131e-04    -3.863    -3.947    -0.083     14.23
   HSO4-           2.027e-07   1.592e-07    -6.693    -6.798    -0.105     40.53
   CaHSO4+         7.423e-09   5.831e-09    -8.129    -8.234    -0.105     (0)  
   NH4SO4-         0.000e+00   0.000e+00   -54.475   -54.607    -0.132     13.45

------------------------------Saturation indices-------------------------------

  Phase               SI** log IAP   log K(298 K,   1 atm)

  Anhydrite        -0.30     -4.58   -4.28  CaSO4
  Aragonite        -0.14     -8.48   -8.34  CaCO3
  Arcanite         -6.31     -8.19   -1.88  K2SO4
  Calcite           0.00     -8.48   -8.48  CaCO3
  CH4(g)         -130.17   -132.98   -2.80  CH4
  CO2(g)           -1.26     -2.72   -1.47  CO2
  Dolomite          0.00    -17.08  -17.08  CaMg(CO3)2
  Epsomite         -2.97     -4.71   -1.74  MgSO4:7H2O
  Gypsum            0.00     -4.58   -4.58  CaSO4:2H2O
  H2(g)           -38.71    -41.81   -3.10  H2
  H2O(g)           -1.50     -0.00    1.50  H2O
  H2S(g)         -128.56   -136.50   -7.94  H2S
  Halite           -6.69     -5.12    1.57  NaCl
  Hexahydrite      -3.14     -4.71   -1.57  MgSO4:6H2O
  Kieserite        -3.54     -4.71   -1.16  MgSO4:H2O
  Mirabilite       -4.10     -5.34   -1.24  Na2SO4:10H2O
  N2(g)            -5.98     -9.16   -3.18  N2
  NH3(g)          -58.07    -56.28    1.80  NH3
  O2(g)            -5.87     -8.76   -2.89  O2
  Sulfur          -95.78    -90.90    4.88  S
  Sylvite          -7.45     -6.55    0.90  KCl
  Thenardite       -5.03     -5.33   -0.30  Na2SO4

**For a gas, SI = log10(fugacity). Fugacity = pressure * phi / 1 atm.
  For ideal gases, phi = 1.


Cell 30.

Using solution 30.	Solution after simulation 5.
Using exchange 30.	Exchange assemblage after simulation 5.
Using pure phase assemblage 30.	Pure-phase assemblage after simulation 5.

-------------------------------Phase assemblage--------------------------------

                                                      Moles in assemblage
Phase               SI  log IAP  log K(T, P)   Initial       Final       Delta

Calcite           0.00    -8.48     -8.48    1.052e+00   1.052e+00   0.000e+00
Dolomite          0.00   -17.08    -17.08    9.746e-01   9.746e-01   0.000e+00
Gypsum            0.00    -4.58     -4.58    9.669e-01   9.669e-01   0.000e+00

-----------------------------Exchange composition------------------------------

X                1.500e+00 mol

	                               Equiv-    Equivalent      Log 
	Species             Moles      alents      Fraction     Gamma

	CaX2              4.510e-01   9.021e-01   6.014e-01    -0.399
	MgX2              2.058e-01   4.117e-01   2.745e-01    -0.382
	NaX               1.564e-01   1.564e-01   1.043e-01    -0.103
	KX                2.978e-02   2.978e-02   1.985e-02    -0.114
	NH4X              4.950e-53   4.950e-53   3.300e-53    -0.124

-----------------------------Solution composition------------------------------

	Elements           Molality       Moles

	C                 7.735e-03   7.744e-03
	Ca                1.226e-02   1.228e-02
	Cl                4.231e-04   4.237e-04
	K                 1.259e-03   1.261e-03
	Mg                1.095e-02   1.097e-02
	N                 2.356e-05   2.359e-05
	Na                3.370e-02   3.374e-02
	S                 3.697e-02   3.701e-02

----------------------------Description of solution----------------------------

                                       pH  =   6.721      Charge balance
                                       pe  =  12.610      Adjusted to redox equilibrium
      Specific Conductance (µS/cm,  25°C)  = 6180
                          Density (g/cm³)  =   1.00215
                               Volume (L)  =   1.00465
                        Viscosity (mPa s)  =   0.91457
                        Activity of water  =   0.998
                 Ionic strength (mol/kgw)  =   9.257e-02
                       Mass of water (kg)  =   1.001e+00
                 Total alkalinity (eq/kg)  =   5.884e-03
                       Total CO2 (mol/kg)  =   7.735e-03
                         Temperature (°C)  =  25.00
                  Electrical balance (eq)  =   1.136e-03
 Percent error, 100*(Cat-|An|)/(Cat+|An|)  =   1.00
                               Iterations  =   1
                                  Total H  = 1.111532e+02
                                  Total O  = 5.574316e+01

----------------------------Distribution of species----------------------------

                                               Log       Log       Log    mole V
   Species          Molality    Activity  Molality  Activity     Gamma   cm³/mol

   H+              2.295e-07   1.901e-07    -6.639    -6.721    -0.082      0.00
   OH-             6.926e-08   5.315e-08    -7.160    -7.274    -0.115     -3.75
   H2O             5.551e+01   9.985e-01     1.744    -0.001     0.000     18.07
C(-4)         0.000e+00
   CH4             0.000e+00   0.000e+00  -132.986  -132.977     0.009     35.46
C(4)          7.735e-03
   HCO3-           5.559e-03   4.408e-03    -2.255    -2.356    -0.101     24.90
   CO2             1.861e-03   1.887e-03    -2.730    -2.724     0.006     34.43
   MgHCO3+         1.524e-04   1.181e-04    -3.817    -3.928    -0.111      5.65
   NaHCO3          8.568e-05   8.942e-05    -4.067    -4.049     0.019     31.73
   CaHCO3+         6.475e-05   5.179e-05    -4.189    -4.286    -0.097      9.83
   CaCO3           5.446e-06   5.563e-06    -5.264    -5.255     0.009    -14.60
   CO3-2           2.751e-06   1.087e-06    -5.561    -5.964    -0.403     -2.84
   MgCO3           2.325e-06   2.375e-06    -5.634    -5.624     0.009    -17.09
   KHCO3           1.695e-06   1.699e-06    -5.771    -5.770     0.001     41.03
   (CO2)2          6.398e-08   6.536e-08    -7.194    -7.185     0.009     68.87
Ca            1.226e-02
   Ca+2            7.627e-03   3.046e-03    -2.118    -2.516    -0.399    -17.46
   CaSO4           4.567e-03   4.666e-03    -2.340    -2.331     0.009      7.50
   CaHCO3+         6.475e-05   5.179e-05    -4.189    -4.286    -0.097      9.83
   CaCO3           5.446e-06   5.563e-06    -5.264    -5.255     0.009    -14.60
   CaHSO4+         7.423e-09   5.831e-09    -8.129    -8.234    -0.105     (0)  
   CaOH+           3.380e-09   2.655e-09    -8.471    -8.576    -0.105     (0)  
Cl            4.231e-04
   Cl-             4.231e-04   3.267e-04    -3.374    -3.486    -0.112     18.33
   HCl             1.954e-11   2.140e-11   -10.709   -10.670     0.039     (0)  
H(0)          0.000e+00
   H2              0.000e+00   0.000e+00   -41.820   -41.811     0.009     28.61
K             1.259e-03
   K+              1.121e-03   8.627e-04    -2.951    -3.064    -0.114      9.23
   KSO4-           1.369e-04   1.131e-04    -3.863    -3.947    -0.083     14.23
   KHCO3           1.695e-06   1.699e-06    -5.771    -5.770     0.001     41.03
Mg            1.095e-02
   Mg+2            5.517e-03   2.289e-03    -2.258    -2.640    -0.382    -21.16
   MgSO4           4.947e-03   5.162e-03    -2.306    -2.287     0.019     -7.92
   Mg(SO4)2-2      3.362e-04   1.465e-04    -3.473    -3.834    -0.361     19.53
   MgHCO3+         1.524e-04   1.181e-04    -3.817    -3.928    -0.111      5.65
   MgCO3           2.325e-06   2.375e-06    -5.634    -5.624     0.009    -17.09
   MgOH+           5.420e-08   4.365e-08    -7.266    -7.360    -0.094     (0)  
N(-3)         0.000e+00
   NH4+            0.000e+00   0.000e+00   -53.630   -53.754    -0.124     18.14
   NH4SO4-         0.000e+00   0.000e+00   -54.475   -54.607    -0.132     13.45
   NH3             0.000e+00   0.000e+00   -56.287   -56.277     0.009     24.42
N(0)          1.363e-09
   N2              6.815e-10   6.962e-10    -9.167    -9.157     0.009     29.29
N(3)          1.914e-15
   NO2-            1.914e-15   1.454e-15   -14.718   -14.838    -0.119     25.22
N(5)          2.356e-05
   NO3-            2.356e-05   1.790e-05    -4.628    -4.747    -0.119     29.75
Na            3.370e-02
   Na+             2.950e-02   2.329e-02    -1.530    -1.633    -0.103     -1.11
   NaSO4-          4.113e-03   3.266e-03    -2.386    -2.486    -0.100     -5.58
   NaHCO3          8.568e-05   8.942e-05    -4.067    -4.049     0.019     31.73
O(0)          3.408e-09
   O2              1.704e-09   1.740e-09    -8.769    -8.759     0.009     30.40
S(-2)         0.000e+00
   H2S             0.000e+00   0.000e+00  -129.566  -129.556     0.009     36.27
   HS-             0.000e+00   0.000e+00  -129.662  -129.777    -0.115     20.86
   S-2             0.000e+00   0.000e+00  -135.560  -135.974    -0.414     (0)  
   (H2S)2          0.000e+00   0.000e+00  -260.400  -260.391     0.009     30.09
S(6)          3.697e-02
   SO4-2           2.253e-02   8.613e-03    -1.647    -2.065    -0.418     24.11
   MgSO4           4.947e-03   5.162e-03    -2.306    -2.287     0.019     -7.92
   CaSO4           4.567e-03   4.666e-03    -2.340    -2.331     0.009      7.50
   NaSO4-          4.113e-03   3.266e-03    -2.386    -2.486    -0.100     -5.58
   Mg(SO4)2-2      3.362e-04   1.465e-04    -3.473    -3.834    -0.361     19.53
   KSO4-           1.369e-04   1.131e-04    -3.863    -3.947    -0.083     14.23
   HSO4-           2.027e-07   1.592e-07    -6.693    -6.798    -0.105     40.53
   CaHSO4+         7.423e-09   5.831e-09    -8.129    -8.234    -0.105     (0)  
   NH4SO4-         0.000e+00   0.000e+00   -54.475   -54.607    -0.132     13.45

------------------------------Saturation indices-------------------------------

  Phase               SI** log IAP   log K(298 K,   1 atm)

  Anhydrite        -0.30     -4.58   -4.28  CaSO4
  Aragonite        -0.14     -8.48   -8.34  CaCO3
  Arcanite         -6.31     -8.19   -1.88  K2SO4
  Calcite           0.00     -8.48   -8.48  CaCO3
  CH4(g)         -130.17   -132.98   -2.80  CH4
  CO2(g)           -1.26     -2.72   -1.47  CO2
  Dolomite          0.00    -17.08  -17.08  CaMg(CO3)2
  Epsomite         -2.97     -4.71   -1.74  MgSO4:7H2O
  Gypsum            0.00     -4.58   -4.58  CaSO4:2H2O
  H2(g)           -38.71    -41.81   -3.10  H2
  H2O(g)           -1.50     -0.00    1.50  H2O
  H2S(g)         -128.56   -136.50   -7.94  H2S
  Halite           -6.69     -5.12    1.57  NaCl
  Hexahydrite      -3.14     -4.71   -1.57  MgSO4:6H2O
  Kieserite        -3.54     -4.71   -1.16  MgSO4:H2O
  Mirabilite       -4.10     -5.34   -1.24  Na2SO4:10H2O
  N2(g)            -5.98     -9.16   -3.18  N2
  NH3(g)          -58.07    -56.28    1.80  NH3
  O2(g)            -5.87     -8.76   -2.89  O2
  Sulfur          -95.78    -90.90    4.88  S
  Sylvite          -7.45     -6.55    0.90  KCl
  Thenardite       -5.03     -5.33   -0.30  Na2SO4

**For a gas, SI = log10(fugacity). Fugacity = pressure * phi / 1 atm.
  For ideal gases, phi = 1.

------------------
End of simulation.
------------------

------------------------------------
Reading input data for simulation 6.
------------------------------------

