WARNING: Database file from DATABASE keyword is used; command line argument ignored.
   Input file: DonnanBug
  Output file: DonnanBug.out
Database file: ../database/phreeqc.dat

------------------
Reading data base.
------------------

	SOLUTION_MASTER_SPECIES
	SOLUTION_SPECIES
	PHASES
	EXCHANGE_MASTER_SPECIES
	EXCHANGE_SPECIES
	SURFACE_MASTER_SPECIES
	SURFACE_SPECIES
	MEAN_GAMMAS
	RATES
	END
------------------------------------
Reading input data for simulation 1.
------------------------------------

	DATABASE ../database/phreeqc.dat
	SELECTED_OUTPUT 101
	    file                 DonnanBug_101.sel
	USER_PUNCH 101
	    headings Mu SC
	    start
	10 PUNCH STR_F$(MU, 20, 12)
	20 PUNCH STR_F$(SC, 20, 10)
	    end
	PHASES
	Halite
	 NaCl:32H2O = Na+ + Cl- + 32H2O
	SURFACE_MASTER_SPECIES
	Su_ Su_OH
	SURFACE_SPECIES
	Su_OH = Su_OH
	Su_OH = Su_O- + H+
	 log_k -12.3
	Su_OH + 2Na+ = Su_ONa2+ + H+
	 log_k -9.4 # Viallis, Number of sites: 4.8/nm2, surface area (to fit the data) 500 m2/g.
	SURFACE 1
	Su_OH Halite eq 30.2 95786 # MW = 191.57. sites = 4.8 * 6.022e23 / (500 * 191.57 * 1e18)
	 donnan debye 2
	 equilibrate 1
	EQUILIBRIUM_PHASES
	Halite 0 0
	SOLUTION 1
	REACTION
	NaCl
	 2 in 3
	KNOBS
	convergence_tolerance 1e-12
-------------------------------------------
Beginning of initial solution calculations.
-------------------------------------------

Initial solution 1.	

-----------------------------Solution composition------------------------------

	Elements           Molality       Moles

	Pure water     

----------------------------Description of solution----------------------------

                                       pH  =   7.000    
                                       pe  =   4.000    
      Specific Conductance (µS/cm,  25°C)  = 0
                          Density (g/cm³)  =   0.99704
                               Volume (L)  =   1.00297
                        Viscosity (mPa s)  =   0.89002
                        Activity of water  =   1.000
                 Ionic strength (mol/kgw)  =   1.006e-07
                       Mass of water (kg)  =   1.000e+00
                 Total alkalinity (eq/kg)  =   1.216e-09
                         Temperature (°C)  =  25.00
                  Electrical balance (eq)  =  -1.216e-09
 Percent error, 100*(Cat-|An|)/(Cat+|An|)  =  -0.60
                               Iterations  =   3
                                  Total H  = 1.110124e+02
                                  Total O  = 5.550622e+01

----------------------------Distribution of species----------------------------

                                               Log       Log       Log    mole V
   Species          Molality    Activity  Molality  Activity     Gamma   cm³/mol

   OH-             1.013e-07   1.012e-07    -6.995    -6.995    -0.000     -4.14
   H+              1.000e-07   1.000e-07    -7.000    -7.000    -0.000      0.00
   H2O             5.551e+01   1.000e+00     1.744    -0.000     0.000     18.07
H(0)          1.416e-25
   H2              7.079e-26   7.079e-26   -25.150   -25.150     0.000     28.61
O(0)          0.000e+00
   O2              0.000e+00   0.000e+00   -42.080   -42.080     0.000     30.40

------------------------------Saturation indices-------------------------------

  Phase               SI** log IAP   log K(298 K,   1 atm)

  H2(g)           -22.05    -25.15   -3.10  H2
  H2O(g)           -1.50     -0.00    1.50  H2O
  O2(g)           -39.19    -42.08   -2.89  O2

**For a gas, SI = log10(fugacity). Fugacity = pressure * phi / 1 atm.
  For ideal gases, phi = 1.

------------------------------------------------------
Beginning of initial surface-composition calculations.
------------------------------------------------------

Surface 1.	

Diffuse Double Layer Surface-Complexation Model

Su            
	 -5.012e-36  Surface + diffuse layer charge, eq
	 -5.012e-36  Surface charge, eq
	undefined  sigma, C/m²
	  0.000e+00  psi, V
	 -0.000e+00  -F*psi/RT
	  1.000e+00  exp(-F*psi/RT)
	  9.579e+04  specific area, m²/mol Halite
	  0.000e+00  m² for   0.000e+00 moles of Halite

	Water in diffuse layer: 0.000e+00 kg,  0.0% of total DDL-water.

Su_           
	  0.000e+00  moles	[30.2 mol/(mol Halite)]
	                                   Mole                     Log
	Species               Moles    Fraction    Molality    Molality

	Su_OH             1.000e-30       0.000   1.000e-30     -30.000
	Su_O-             5.012e-36       0.000   5.012e-36     -35.300

-----------------------------------------
Beginning of batch-reaction calculations.
-----------------------------------------

Reaction step 1.

Using solution 1.	
Using surface 1.	
Using pure phase assemblage 1.	
Using reaction 1.	

Reaction 1.	

	  6.667e-01 moles of the following reaction have been added:

	                 Relative
	Reactant            moles

	NaCl                 1.00000

	                 Relative
	Element             moles
	Cl                   1.00000
	Na                   1.00000

-------------------------------Phase assemblage--------------------------------

                                                      Moles in assemblage
Phase               SI  log IAP  log K(T, P)   Initial       Final       Delta

Halite           -1.01    -1.01      0.00    0.000e+00           0   0.000e+00

------------------------------Surface composition------------------------------

Diffuse Double Layer Surface-Complexation Model

Su            
	  8.449e-34  Surface + diffuse layer charge, eq
	  8.449e-34  Surface charge, eq
	undefined  sigma, C/m²
	  0.000e+00  psi, V
	 -0.000e+00  -F*psi/RT
	  1.000e+00  exp(-F*psi/RT)
	  9.579e+04  specific area, m²/mol Halite
	  0.000e+00  m² for   0.000e+00 moles of Halite

	Water in diffuse layer: 0.000e+00 kg,  0.0% of total DDL-water.

Su_           
	  0.000e+00  moles	[30.2 mol/(mol Halite)]
	                                   Mole                     Log
	Species               Moles    Fraction    Molality    Molality

	Su_OH             1.000e-30       0.000   1.000e-30     -30.000
	Su_ONa2+          8.496e-34       0.000   8.496e-34     -33.071
	Su_O-             4.674e-36       0.000   4.674e-36     -35.330

-----------------------------Solution composition------------------------------

	Elements           Molality       Moles

	Cl                6.667e-01   6.667e-01
	Na                6.667e-01   6.667e-01

----------------------------Description of solution----------------------------

                                       pH  =   6.970      Charge balance
                                       pe  =  -0.879      Adjusted to redox equilibrium
      Specific Conductance (µS/cm,  25°C)  = 59616
                          Density (g/cm³)  =   1.02346
                               Volume (L)  =   1.01515
                        Viscosity (mPa s)  =   0.94380
                        Activity of water  =   0.977
                 Ionic strength (mol/kgw)  =   6.667e-01
                       Mass of water (kg)  =   1.000e+00
                 Total alkalinity (eq/kg)  =   1.216e-09
                         Temperature (°C)  =  25.00
                  Electrical balance (eq)  =  -1.216e-09
 Percent error, 100*(Cat-|An|)/(Cat+|An|)  =  -0.00
                               Iterations  =   1 (13 overall)
                                  Total H  = 1.110124e+02
                                  Total O  = 5.550622e+01

----------------------------Distribution of species----------------------------

                                               Log       Log       Log    mole V
   Species          Molality    Activity  Molality  Activity     Gamma   cm³/mol

   OH-             1.513e-07   9.226e-08    -6.820    -7.035    -0.215     -2.64
   H+              1.420e-07   1.072e-07    -6.848    -6.970    -0.122      0.00
   H2O             5.551e+01   9.773e-01     1.744    -0.010     0.000     18.07
Cl            6.667e-01
   Cl-             6.667e-01   4.210e-01    -0.176    -0.376    -0.200     18.79
   HCl             8.090e-09   1.555e-08    -8.092    -7.808     0.284     (0)  
H(0)          7.984e-16
   H2              3.992e-16   4.654e-16   -15.399   -15.332     0.067     28.61
Na            6.667e-01
   Na+             6.667e-01   4.783e-01    -0.176    -0.320    -0.144     -0.51
O(0)          0.000e+00
   O2              0.000e+00   0.000e+00   -61.802   -61.736     0.067     30.40

------------------------------Saturation indices-------------------------------

  Phase               SI** log IAP   log K(298 K,   1 atm)

  H2(g)           -12.23    -15.33   -3.10  H2
  H2O(g)           -1.51     -0.01    1.50  H2O
  Halite           -1.01     -1.01    0.00  NaCl:32H2O
  O2(g)           -58.84    -61.74   -2.89  O2

**For a gas, SI = log10(fugacity). Fugacity = pressure * phi / 1 atm.
  For ideal gases, phi = 1.

Reaction step 2.

Using solution 1.	
Using surface 1.	
Using pure phase assemblage 1.	
Using reaction 1.	

Reaction 1.	

	  1.333e+00 moles of the following reaction have been added:

	                 Relative
	Reactant            moles

	NaCl                 1.00000

	                 Relative
	Element             moles
	Cl                   1.00000
	Na                   1.00000

-------------------------------Phase assemblage--------------------------------

                                                      Moles in assemblage
Phase               SI  log IAP  log K(T, P)   Initial       Final       Delta

Halite           -0.74    -0.74      0.00    0.000e+00           0   0.000e+00

------------------------------Surface composition------------------------------

Diffuse Double Layer Surface-Complexation Model

Su            
	  3.686e-33  Surface + diffuse layer charge, eq
	  3.686e-33  Surface charge, eq
	undefined  sigma, C/m²
	  0.000e+00  psi, V
	 -0.000e+00  -F*psi/RT
	  1.000e+00  exp(-F*psi/RT)
	  9.579e+04  specific area, m²/mol Halite
	  0.000e+00  m² for   0.000e+00 moles of Halite

	Water in diffuse layer: 0.000e+00 kg,  0.0% of total DDL-water.

Su_           
	  0.000e+00  moles	[30.2 mol/(mol Halite)]
	                                   Mole                     Log
	Species               Moles    Fraction    Molality    Molality

	Su_OH             1.000e-30       0.000   1.000e-30     -30.000
	Su_ONa2+          3.690e-33       0.000   3.690e-33     -32.433
	Su_O-             4.580e-36       0.000   4.580e-36     -35.339

-----------------------------Solution composition------------------------------

	Elements           Molality       Moles

	Cl                1.333e+00   1.333e+00
	Na                1.333e+00   1.333e+00

----------------------------Description of solution----------------------------

                                       pH  =   6.961      Charge balance
                                       pe  =  -0.892      Adjusted to redox equilibrium
      Specific Conductance (µS/cm,  25°C)  = 106701
                          Density (g/cm³)  =   1.04834
                               Volume (L)  =   1.02822
                        Viscosity (mPa s)  =   1.00507
                        Activity of water  =   0.955
                 Ionic strength (mol/kgw)  =   1.333e+00
                       Mass of water (kg)  =   1.000e+00
                 Total alkalinity (eq/kg)  =   1.216e-09
                         Temperature (°C)  =  25.00
                  Electrical balance (eq)  =  -1.216e-09
 Percent error, 100*(Cat-|An|)/(Cat+|An|)  =  -0.00
                               Iterations  =   1 (10 overall)
                                  Total H  = 1.110124e+02
                                  Total O  = 5.550622e+01

----------------------------Distribution of species----------------------------

                                               Log       Log       Log    mole V
   Species          Molality    Activity  Molality  Activity     Gamma   cm³/mol

   OH-             1.581e-07   8.830e-08    -6.801    -7.054    -0.253     -1.60
   H+              1.488e-07   1.094e-07    -6.827    -6.961    -0.133      0.00
   H2O             5.551e+01   9.547e-01     1.744    -0.020     0.000     18.07
Cl            1.333e+00
   Cl-             1.333e+00   7.940e-01     0.125    -0.100    -0.225     19.08
   HCl             8.104e-09   2.993e-08    -8.091    -7.524     0.567     (0)  
H(0)          7.598e-16
   H2              3.799e-16   5.164e-16   -15.420   -15.287     0.133     28.61
Na            1.333e+00
   Na+             1.333e+00   1.007e+00     0.125     0.003    -0.122     -0.14
O(0)          0.000e+00
   O2              0.000e+00   0.000e+00   -61.980   -61.846     0.133     30.40

------------------------------Saturation indices-------------------------------

  Phase               SI** log IAP   log K(298 K,   1 atm)

  H2(g)           -12.19    -15.29   -3.10  H2
  H2O(g)           -1.52     -0.02    1.50  H2O
  Halite           -0.74     -0.74    0.00  NaCl:32H2O
  O2(g)           -58.95    -61.85   -2.89  O2

**For a gas, SI = log10(fugacity). Fugacity = pressure * phi / 1 atm.
  For ideal gases, phi = 1.

Reaction step 3.

Using solution 1.	
Using surface 1.	
Using pure phase assemblage 1.	
Using reaction 1.	

Reaction 1.	

	  2.000e+00 moles of the following reaction have been added:

	                 Relative
	Reactant            moles

	NaCl                 1.00000

	                 Relative
	Element             moles
	Cl                   1.00000
	Na                   1.00000

-------------------------------Phase assemblage--------------------------------

                                                      Moles in assemblage
Phase               SI  log IAP  log K(T, P)   Initial       Final       Delta

Halite           -0.70    -0.70      0.00    0.000e+00           0   0.000e+00

------------------------------Surface composition------------------------------

Diffuse Double Layer Surface-Complexation Model

Su            
	  9.704e-33  Surface + diffuse layer charge, eq
	  9.704e-33  Surface charge, eq
	undefined  sigma, C/m²
	  0.000e+00  psi, V
	 -0.000e+00  -F*psi/RT
	  1.000e+00  exp(-F*psi/RT)
	  9.579e+04  specific area, m²/mol Halite
	  0.000e+00  m² for   0.000e+00 moles of Halite

	Water in diffuse layer: 0.000e+00 kg,  0.0% of total DDL-water.

Su_           
	  0.000e+00  moles	[30.2 mol/(mol Halite)]
	                                   Mole                     Log
	Species               Moles    Fraction    Molality    Molality

	Su_OH             1.000e-30       0.000   1.000e-30     -30.000
	Su_ONa2+          9.709e-33       0.000   9.709e-33     -32.013
	Su_O-             4.522e-36       0.000   4.522e-36     -35.345

-----------------------------Solution composition------------------------------

	Elements           Molality       Moles

	Cl                2.000e+00   2.000e+00
	Na                2.000e+00   2.000e+00

----------------------------Description of solution----------------------------

                                       pH  =   6.955      Charge balance
                                       pe  =  -0.899      Adjusted to redox equilibrium
      Specific Conductance (µS/cm,  25°C)  = 145262
                          Density (g/cm³)  =   1.07204
                               Volume (L)  =   1.04183
                        Viscosity (mPa s)  =   1.07649
                        Activity of water  =   0.932
                 Ionic strength (mol/kgw)  =   2.000e+00
                       Mass of water (kg)  =   1.000e+00
                 Total alkalinity (eq/kg)  =   1.216e-09
                         Temperature (°C)  =  25.00
                  Electrical balance (eq)  =  -1.216e-09
 Percent error, 100*(Cat-|An|)/(Cat+|An|)  =  -0.00
                               Iterations  =   1 (10 overall)
                                  Total H  = 1.110124e+02
                                  Total O  = 5.550622e+01

----------------------------Distribution of species----------------------------

                                               Log       Log       Log    mole V
   Species          Molality    Activity  Molality  Activity     Gamma   cm³/mol

   OH-             1.602e-07   8.511e-08    -6.795    -7.070    -0.275     -0.62
   H+              1.527e-07   1.108e-07    -6.816    -6.955    -0.139      0.00
   H2O             5.551e+01   9.320e-01     1.744    -0.031     0.000     18.07
Cl            2.000e+00
   Cl-             2.000e+00   1.166e+00     0.301     0.067    -0.235     19.29
   HCl             6.269e-09   4.450e-08    -8.203    -7.352     0.851     (0)  
H(0)          6.900e-16
   H2              3.450e-16   5.468e-16   -15.462   -15.262     0.200     28.61
Na            2.000e+00
   Na+             2.000e+00   1.644e+00     0.301     0.216    -0.085      0.14
O(0)          0.000e+00
   O2              0.000e+00   0.000e+00   -62.117   -61.917     0.200     30.40

------------------------------Saturation indices-------------------------------

  Phase               SI** log IAP   log K(298 K,   1 atm)

  H2(g)           -12.16    -15.26   -3.10  H2
  H2O(g)           -1.53     -0.03    1.50  H2O
  Halite           -0.70     -0.70    0.00  NaCl:32H2O
  O2(g)           -59.02    -61.92   -2.89  O2

**For a gas, SI = log10(fugacity). Fugacity = pressure * phi / 1 atm.
  For ideal gases, phi = 1.

------------------
End of simulation.
------------------

------------------------------------
Reading input data for simulation 2.
------------------------------------

