WARNING: Database file from DATABASE keyword is used; command line argument ignored.
   Input file: eq_EC
  Output file: eq_EC.out
Database file: ../database/phreeqc.dat

------------------
Reading data base.
------------------

	SOLUTION_MASTER_SPECIES
	SOLUTION_SPECIES
	PHASES
	EXCHANGE_MASTER_SPECIES
	EXCHANGE_SPECIES
	SURFACE_MASTER_SPECIES
	SURFACE_SPECIES
	MEAN_GAMMAS
	RATES
	END
------------------------------------
Reading input data for simulation 1.
------------------------------------

	DATABASE ../database/phreeqc.dat
	SELECTED_OUTPUT 101
	    file                 eq_EC_101.sel
	USER_PUNCH 101
	    headings Mu SC
	    start
	10 PUNCH STR_F$(MU, 20, 12)
	20 PUNCH STR_F$(SC, 20, 10)
	    end
	PRINT
	 warning 0
	SELECTED_OUTPUT
	 file eq_EC.prn
	 reset false
	USER_PUNCH
	 heading conc eq_EC_25
	 start
	 10 punch tot("Cl"), SC / tot("Cl") /1e3
	 end
	SOLUTION_SPREAD
	 units mol/kgw
	K	Cl	HB Chem Phys
	5.00E-04	1 charge	147.8
	1.00E-03	1 charge	147
	5.00E-03	1 charge	143.3
	1.00E-02	1 charge	141.3
	2.00E-02	1 charge	138.3
	5.00E-02	1 charge	133.4
	1.00E-01	1 charge	129
	END
-------------------------------------------
Beginning of initial solution calculations.
-------------------------------------------

Initial solution 1.	

-----------------------------Solution composition------------------------------

	Elements           Molality       Moles

	Cl                5.000e-04   5.000e-04  Charge balance
	K                 5.000e-04   5.000e-04

----------------------------Description of solution----------------------------

                                       pH  =   7.000    
                                       pe  =   4.000    
      Specific Conductance (µS/cm,  25°C)  = 73
                          Density (g/cm³)  =   0.99707
                               Volume (L)  =   1.00298
                        Viscosity (mPa s)  =   0.89012
                        Activity of water  =   1.000
                 Ionic strength (mol/kgw)  =   5.001e-04
                       Mass of water (kg)  =   1.000e+00
                 Total alkalinity (eq/kg)  =   1.328e-09
                         Temperature (°C)  =  25.00
                  Electrical balance (eq)  =  -4.151e-19
 Percent error, 100*(Cat-|An|)/(Cat+|An|)  =  -0.00
                               Iterations  =   5
                                  Total H  = 1.110124e+02
                                  Total O  = 5.550622e+01

----------------------------Distribution of species----------------------------

                                               Log       Log       Log    mole V
   Species          Molality    Activity  Molality  Activity     Gamma   cm³/mol

   OH-             1.038e-07   1.012e-07    -6.984    -6.995    -0.011     -4.12
   H+              1.025e-07   1.000e-07    -6.989    -7.000    -0.011      0.00
   H2O             5.551e+01   1.000e+00     1.744    -0.000     0.000     18.07
Cl            5.000e-04
   Cl-             5.000e-04   4.874e-04    -3.301    -3.312    -0.011     18.07
   HCl             1.678e-11   1.679e-11   -10.775   -10.775     0.000     (0)  
H(0)          1.416e-25
   H2              7.079e-26   7.079e-26   -25.150   -25.150     0.000     28.61
K             5.000e-04
   K+              5.000e-04   4.874e-04    -3.301    -3.312    -0.011      9.00
O(0)          0.000e+00
   O2              0.000e+00   0.000e+00   -42.080   -42.080     0.000     30.40

------------------------------Saturation indices-------------------------------

  Phase               SI** log IAP   log K(298 K,   1 atm)

  H2(g)           -22.05    -25.15   -3.10  H2
  H2O(g)           -1.50     -0.00    1.50  H2O
  O2(g)           -39.19    -42.08   -2.89  O2
  Sylvite          -7.52     -6.62    0.90  KCl

**For a gas, SI = log10(fugacity). Fugacity = pressure * phi / 1 atm.
  For ideal gases, phi = 1.

Initial solution 2.	

-----------------------------Solution composition------------------------------

	Elements           Molality       Moles

	Cl                1.000e-03   1.000e-03  Charge balance
	K                 1.000e-03   1.000e-03

----------------------------Description of solution----------------------------

                                       pH  =   7.000    
                                       pe  =   4.000    
      Specific Conductance (µS/cm,  25°C)  = 146
                          Density (g/cm³)  =   0.99709
                               Volume (L)  =   1.00299
                        Viscosity (mPa s)  =   0.89015
                        Activity of water  =   1.000
                 Ionic strength (mol/kgw)  =   1.000e-03
                       Mass of water (kg)  =   1.000e+00
                 Total alkalinity (eq/kg)  =   1.417e-09
                         Temperature (°C)  =  25.00
                  Electrical balance (eq)  =   1.758e-14
 Percent error, 100*(Cat-|An|)/(Cat+|An|)  =   0.00
                               Iterations  =   3 (8 overall)
                                  Total H  = 1.110124e+02
                                  Total O  = 5.550622e+01

----------------------------Distribution of species----------------------------

                                               Log       Log       Log    mole V
   Species          Molality    Activity  Molality  Activity     Gamma   cm³/mol

   OH-             1.049e-07   1.012e-07    -6.979    -6.995    -0.016     -4.11
   H+              1.035e-07   1.000e-07    -6.985    -7.000    -0.015      0.00
   H2O             5.551e+01   1.000e+00     1.744    -0.000     0.000     18.07
Cl            1.000e-03
   Cl-             1.000e-03   9.649e-04    -3.000    -3.016    -0.016     18.07
   HCl             3.321e-11   3.324e-11   -10.479   -10.478     0.000     (0)  
H(0)          1.416e-25
   H2              7.078e-26   7.079e-26   -25.150   -25.150     0.000     28.61
K             1.000e-03
   K+              1.000e-03   9.648e-04    -3.000    -3.016    -0.016      9.01
O(0)          0.000e+00
   O2              0.000e+00   0.000e+00   -42.080   -42.080     0.000     30.40

------------------------------Saturation indices-------------------------------

  Phase               SI** log IAP   log K(298 K,   1 atm)

  H2(g)           -22.05    -25.15   -3.10  H2
  H2O(g)           -1.50     -0.00    1.50  H2O
  O2(g)           -39.19    -42.08   -2.89  O2
  Sylvite          -6.93     -6.03    0.90  KCl

**For a gas, SI = log10(fugacity). Fugacity = pressure * phi / 1 atm.
  For ideal gases, phi = 1.

Initial solution 3.	

-----------------------------Solution composition------------------------------

	Elements           Molality       Moles

	Cl                5.000e-03   5.000e-03  Charge balance
	K                 5.000e-03   5.000e-03

----------------------------Description of solution----------------------------

                                       pH  =   7.000    
                                       pe  =   4.000    
      Specific Conductance (µS/cm,  25°C)  = 715
                          Density (g/cm³)  =   0.99728
                               Volume (L)  =   1.00310
                        Viscosity (mPa s)  =   0.89028
                        Activity of water  =   1.000
                 Ionic strength (mol/kgw)  =   5.000e-03
                       Mass of water (kg)  =   1.000e+00
                 Total alkalinity (eq/kg)  =   2.008e-09
                         Temperature (°C)  =  25.00
                  Electrical balance (eq)  =  -3.537e-12
 Percent error, 100*(Cat-|An|)/(Cat+|An|)  =  -0.00
                               Iterations  =   7 (15 overall)
                                  Total H  = 1.110124e+02
                                  Total O  = 5.550622e+01

----------------------------Distribution of species----------------------------

                                               Log       Log       Log    mole V
   Species          Molality    Activity  Molality  Activity     Gamma   cm³/mol

   OH-             1.093e-07   1.012e-07    -6.961    -6.995    -0.033     -4.07
   H+              1.071e-07   1.000e-07    -6.970    -7.000    -0.030      0.00
   H2O             5.551e+01   9.998e-01     1.744    -0.000     0.000     18.07
Cl            5.000e-03
   Cl-             5.000e-03   4.632e-03    -2.301    -2.334    -0.033     18.11
   HCl             1.588e-10   1.596e-10    -9.799    -9.797     0.002     (0)  
H(0)          1.414e-25
   H2              7.071e-26   7.079e-26   -25.151   -25.150     0.001     28.61
K             5.000e-03
   K+              5.000e-03   4.631e-03    -2.301    -2.334    -0.033      9.04
O(0)          0.000e+00
   O2              0.000e+00   0.000e+00   -42.081   -42.080     0.001     30.40

------------------------------Saturation indices-------------------------------

  Phase               SI** log IAP   log K(298 K,   1 atm)

  H2(g)           -22.05    -25.15   -3.10  H2
  H2O(g)           -1.50     -0.00    1.50  H2O
  O2(g)           -39.19    -42.08   -2.89  O2
  Sylvite          -5.57     -4.67    0.90  KCl

**For a gas, SI = log10(fugacity). Fugacity = pressure * phi / 1 atm.
  For ideal gases, phi = 1.

Initial solution 4.	

-----------------------------Solution composition------------------------------

	Elements           Molality       Moles

	Cl                1.000e-02   1.000e-02  Charge balance
	K                 1.000e-02   1.000e-02

----------------------------Description of solution----------------------------

                                       pH  =   7.000    
                                       pe  =   4.000    
      Specific Conductance (µS/cm,  25°C)  = 1408
                          Density (g/cm³)  =   0.99752
                               Volume (L)  =   1.00324
                        Viscosity (mPa s)  =   0.89035
                        Activity of water  =   1.000
                 Ionic strength (mol/kgw)  =   1.000e-02
                       Mass of water (kg)  =   1.000e+00
                 Total alkalinity (eq/kg)  =   2.625e-09
                         Temperature (°C)  =  25.00
                  Electrical balance (eq)  =  -2.632e-20
 Percent error, 100*(Cat-|An|)/(Cat+|An|)  =  -0.00
                               Iterations  =   8 (23 overall)
                                  Total H  = 1.110124e+02
                                  Total O  = 5.550622e+01

----------------------------Distribution of species----------------------------

                                               Log       Log       Log    mole V
   Species          Molality    Activity  Molality  Activity     Gamma   cm³/mol

   OH-             1.124e-07   1.012e-07    -6.949    -6.995    -0.046     -4.03
   H+              1.095e-07   1.000e-07    -6.961    -7.000    -0.039      0.00
   H2O             5.551e+01   9.997e-01     1.744    -0.000     0.000     18.07
Cl            1.000e-02
   Cl-             1.000e-02   9.007e-03    -2.000    -2.045    -0.045     18.14
   HCl             3.073e-10   3.103e-10    -9.512    -9.508     0.004     (0)  
H(0)          1.413e-25
   H2              7.063e-26   7.079e-26   -25.151   -25.150     0.001     28.61
K             1.000e-02
   K+              1.000e-02   9.003e-03    -2.000    -2.046    -0.046      9.07
O(0)          0.000e+00
   O2              0.000e+00   0.000e+00   -42.081   -42.080     0.001     30.40

------------------------------Saturation indices-------------------------------

  Phase               SI** log IAP   log K(298 K,   1 atm)

  H2(g)           -22.05    -25.15   -3.10  H2
  H2O(g)           -1.50     -0.00    1.50  H2O
  O2(g)           -39.19    -42.08   -2.89  O2
  Sylvite          -4.99     -4.09    0.90  KCl

**For a gas, SI = log10(fugacity). Fugacity = pressure * phi / 1 atm.
  For ideal gases, phi = 1.

Initial solution 5.	

-----------------------------Solution composition------------------------------

	Elements           Molality       Moles

	Cl                2.000e-02   2.000e-02  Charge balance
	K                 2.000e-02   2.000e-02

----------------------------Description of solution----------------------------

                                       pH  =   7.000    
                                       pe  =   4.000    
      Specific Conductance (µS/cm,  25°C)  = 2762
                          Density (g/cm³)  =   0.99799
                               Volume (L)  =   1.00351
                        Viscosity (mPa s)  =   0.89041
                        Activity of water  =   0.999
                 Ionic strength (mol/kgw)  =   2.000e-02
                       Mass of water (kg)  =   1.000e+00
                 Total alkalinity (eq/kg)  =   3.668e-09
                         Temperature (°C)  =  25.00
                  Electrical balance (eq)  =  -3.502e-15
 Percent error, 100*(Cat-|An|)/(Cat+|An|)  =  -0.00
                               Iterations  =   7 (30 overall)
                                  Total H  = 1.110124e+02
                                  Total O  = 5.550622e+01

----------------------------Distribution of species----------------------------

                                               Log       Log       Log    mole V
   Species          Molality    Activity  Molality  Activity     Gamma   cm³/mol

   OH-             1.167e-07   1.011e-07    -6.933    -6.995    -0.062     -3.98
   H+              1.124e-07   1.000e-07    -6.949    -7.000    -0.051      0.00
   H2O             5.551e+01   9.993e-01     1.744    -0.000     0.000     18.07
Cl            2.000e-02
   Cl-             2.000e-02   1.736e-02    -1.699    -1.760    -0.061     18.18
   HCl             5.866e-10   5.982e-10    -9.232    -9.223     0.009     (0)  
H(0)          1.409e-25
   H2              7.047e-26   7.079e-26   -25.152   -25.150     0.002     28.61
K             2.000e-02
   K+              2.000e-02   1.735e-02    -1.699    -1.761    -0.062      9.10
O(0)          0.000e+00
   O2              0.000e+00   0.000e+00   -42.083   -42.081     0.002     30.40

------------------------------Saturation indices-------------------------------

  Phase               SI** log IAP   log K(298 K,   1 atm)

  H2(g)           -22.05    -25.15   -3.10  H2
  H2O(g)           -1.50     -0.00    1.50  H2O
  O2(g)           -39.19    -42.08   -2.89  O2
  Sylvite          -4.42     -3.52    0.90  KCl

**For a gas, SI = log10(fugacity). Fugacity = pressure * phi / 1 atm.
  For ideal gases, phi = 1.

Initial solution 6.	

-----------------------------Solution composition------------------------------

	Elements           Molality       Moles

	Cl                5.000e-02   5.000e-02  Charge balance
	K                 5.000e-02   5.000e-02

----------------------------Description of solution----------------------------

                                       pH  =   7.000    
                                       pe  =   4.000    
      Specific Conductance (µS/cm,  25°C)  = 6668
                          Density (g/cm³)  =   0.99939
                               Volume (L)  =   1.00434
                        Viscosity (mPa s)  =   0.89040
                        Activity of water  =   0.998
                 Ionic strength (mol/kgw)  =   5.000e-02
                       Mass of water (kg)  =   1.000e+00
                 Total alkalinity (eq/kg)  =   6.055e-09
                         Temperature (°C)  =  25.00
                  Electrical balance (eq)  =  -7.263e-15
 Percent error, 100*(Cat-|An|)/(Cat+|An|)  =  -0.00
                               Iterations  =   6 (36 overall)
                                  Total H  = 1.110124e+02
                                  Total O  = 5.550622e+01

----------------------------Distribution of species----------------------------

                                               Log       Log       Log    mole V
   Species          Molality    Activity  Molality  Activity     Gamma   cm³/mol

   OH-             1.245e-07   1.010e-07    -6.905    -6.995    -0.091     -3.87
   H+              1.171e-07   1.000e-07    -6.931    -7.000    -0.069      0.00
   H2O             5.551e+01   9.983e-01     1.744    -0.001     0.000     18.07
Cl            5.000e-02
   Cl-             5.000e-02   4.072e-02    -1.301    -1.390    -0.089     18.25
   HCl             1.336e-09   1.403e-09    -8.874    -8.853     0.021     (0)  
H(0)          1.400e-25
   H2              6.998e-26   7.079e-26   -25.155   -25.150     0.005     28.61
K             5.000e-02
   K+              5.000e-02   4.064e-02    -1.301    -1.391    -0.090      9.17
O(0)          0.000e+00
   O2              0.000e+00   0.000e+00   -42.086   -42.081     0.005     30.40

------------------------------Saturation indices-------------------------------

  Phase               SI** log IAP   log K(298 K,   1 atm)

  H2(g)           -22.05    -25.15   -3.10  H2
  H2O(g)           -1.50     -0.00    1.50  H2O
  O2(g)           -39.19    -42.08   -2.89  O2
  Sylvite          -3.68     -2.78    0.90  KCl

**For a gas, SI = log10(fugacity). Fugacity = pressure * phi / 1 atm.
  For ideal gases, phi = 1.

Initial solution 7.	

-----------------------------Solution composition------------------------------

	Elements           Molality       Moles

	Cl                1.000e-01   1.000e-01  Charge balance
	K                 1.000e-01   1.000e-01

----------------------------Description of solution----------------------------

                                       pH  =   7.000    
                                       pe  =   4.000    
      Specific Conductance (µS/cm,  25°C)  = 12896
                          Density (g/cm³)  =   1.00172
                               Volume (L)  =   1.00572
                        Viscosity (mPa s)  =   0.89023
                        Activity of water  =   0.997
                 Ionic strength (mol/kgw)  =   1.000e-01
                       Mass of water (kg)  =   1.000e+00
                 Total alkalinity (eq/kg)  =   8.896e-09
                         Temperature (°C)  =  25.00
                  Electrical balance (eq)  =  -1.762e-13
 Percent error, 100*(Cat-|An|)/(Cat+|An|)  =  -0.00
                               Iterations  =   5 (41 overall)
                                  Total H  = 1.110124e+02
                                  Total O  = 5.550622e+01

----------------------------Distribution of species----------------------------

                                               Log       Log       Log    mole V
   Species          Molality    Activity  Molality  Activity     Gamma   cm³/mol

   OH-             1.324e-07   1.009e-07    -6.878    -6.996    -0.118     -3.73
   H+              1.212e-07   1.000e-07    -6.917    -7.000    -0.083      0.00
   H2O             5.551e+01   9.966e-01     1.744    -0.001     0.000     18.07
Cl            1.000e-01
   Cl-             1.000e-01   7.666e-02    -1.000    -1.115    -0.115     18.34
   HCl             2.394e-09   2.641e-09    -8.621    -8.578     0.043     (0)  
H(0)          1.384e-25
   H2              6.918e-26   7.079e-26   -25.160   -25.150     0.010     28.61
K             1.000e-01
   K+              1.000e-01   7.642e-02    -1.000    -1.117    -0.117      9.24
O(0)          0.000e+00
   O2              0.000e+00   0.000e+00   -42.093   -42.083     0.010     30.40

------------------------------Saturation indices-------------------------------

  Phase               SI** log IAP   log K(298 K,   1 atm)

  H2(g)           -22.05    -25.15   -3.10  H2
  H2O(g)           -1.50     -0.00    1.50  H2O
  O2(g)           -39.19    -42.08   -2.89  O2
  Sylvite          -3.13     -2.23    0.90  KCl

**For a gas, SI = log10(fugacity). Fugacity = pressure * phi / 1 atm.
  For ideal gases, phi = 1.

------------------
End of simulation.
------------------

------------------------------------
Reading input data for simulation 2.
------------------------------------

	SOLUTION_SPREAD
	 units mol/kgw
	Na	Cl	HB Chem Phys
	5.00E-04	1 charge	124.5
	1.00E-03	1 charge	123.7
	5.00E-03	1 charge	120.6
	1.00E-02	1 charge	118.5
	2.00E-02	1 charge	115.5
	5.00E-02	1 charge	111.1
	1.00E-01	1 charge	106.7
	END
-------------------------------------------
Beginning of initial solution calculations.
-------------------------------------------

Initial solution 8.	

-----------------------------Solution composition------------------------------

	Elements           Molality       Moles

	Cl                5.000e-04   5.000e-04  Charge balance
	Na                5.000e-04   5.000e-04

----------------------------Description of solution----------------------------

                                       pH  =   7.000    
                                       pe  =   4.000    
      Specific Conductance (µS/cm,  25°C)  = 61
                          Density (g/cm³)  =   0.99706
                               Volume (L)  =   1.00297
                        Viscosity (mPa s)  =   0.89018
                        Activity of water  =   1.000
                 Ionic strength (mol/kgw)  =   5.001e-04
                       Mass of water (kg)  =   1.000e+00
                 Total alkalinity (eq/kg)  =   1.328e-09
                         Temperature (°C)  =  25.00
                  Electrical balance (eq)  =  -4.151e-19
 Percent error, 100*(Cat-|An|)/(Cat+|An|)  =  -0.00
                               Iterations  =   5
                                  Total H  = 1.110124e+02
                                  Total O  = 5.550622e+01

----------------------------Distribution of species----------------------------

                                               Log       Log       Log    mole V
   Species          Molality    Activity  Molality  Activity     Gamma   cm³/mol

   OH-             1.038e-07   1.012e-07    -6.984    -6.995    -0.011     -4.12
   H+              1.025e-07   1.000e-07    -6.989    -7.000    -0.011      0.00
   H2O             5.551e+01   1.000e+00     1.744    -0.000     0.000     18.07
Cl            5.000e-04
   Cl-             5.000e-04   4.874e-04    -3.301    -3.312    -0.011     18.07
   HCl             1.678e-11   1.679e-11   -10.775   -10.775     0.000     (0)  
H(0)          1.416e-25
   H2              7.079e-26   7.079e-26   -25.150   -25.150     0.000     28.61
Na            5.000e-04
   Na+             5.000e-04   4.875e-04    -3.301    -3.312    -0.011     -1.49
O(0)          0.000e+00
   O2              0.000e+00   0.000e+00   -42.080   -42.080     0.000     30.40

------------------------------Saturation indices-------------------------------

  Phase               SI** log IAP   log K(298 K,   1 atm)

  H2(g)           -22.05    -25.15   -3.10  H2
  H2O(g)           -1.50     -0.00    1.50  H2O
  Halite           -8.19     -6.62    1.57  NaCl
  O2(g)           -39.19    -42.08   -2.89  O2

**For a gas, SI = log10(fugacity). Fugacity = pressure * phi / 1 atm.
  For ideal gases, phi = 1.

Initial solution 9.	

-----------------------------Solution composition------------------------------

	Elements           Molality       Moles

	Cl                1.000e-03   1.000e-03  Charge balance
	Na                1.000e-03   1.000e-03

----------------------------Description of solution----------------------------

                                       pH  =   7.000    
                                       pe  =   4.000    
      Specific Conductance (µS/cm,  25°C)  = 122
                          Density (g/cm³)  =   0.99708
                               Volume (L)  =   1.00298
                        Viscosity (mPa s)  =   0.89026
                        Activity of water  =   1.000
                 Ionic strength (mol/kgw)  =   1.000e-03
                       Mass of water (kg)  =   1.000e+00
                 Total alkalinity (eq/kg)  =   1.417e-09
                         Temperature (°C)  =  25.00
                  Electrical balance (eq)  =  -1.050e-13
 Percent error, 100*(Cat-|An|)/(Cat+|An|)  =  -0.00
                               Iterations  =   3 (8 overall)
                                  Total H  = 1.110124e+02
                                  Total O  = 5.550622e+01

----------------------------Distribution of species----------------------------

                                               Log       Log       Log    mole V
   Species          Molality    Activity  Molality  Activity     Gamma   cm³/mol

   OH-             1.049e-07   1.012e-07    -6.979    -6.995    -0.016     -4.11
   H+              1.035e-07   1.000e-07    -6.985    -7.000    -0.015      0.00
   H2O             5.551e+01   1.000e+00     1.744    -0.000     0.000     18.07
Cl            1.000e-03
   Cl-             1.000e-03   9.649e-04    -3.000    -3.016    -0.016     18.07
   HCl             3.321e-11   3.324e-11   -10.479   -10.478     0.000     (0)  
H(0)          1.416e-25
   H2              7.078e-26   7.079e-26   -25.150   -25.150     0.000     28.61
Na            1.000e-03
   Na+             1.000e-03   9.652e-04    -3.000    -3.015    -0.015     -1.48
O(0)          0.000e+00
   O2              0.000e+00   0.000e+00   -42.080   -42.080     0.000     30.40

------------------------------Saturation indices-------------------------------

  Phase               SI** log IAP   log K(298 K,   1 atm)

  H2(g)           -22.05    -25.15   -3.10  H2
  H2O(g)           -1.50     -0.00    1.50  H2O
  Halite           -7.60     -6.03    1.57  NaCl
  O2(g)           -39.19    -42.08   -2.89  O2

**For a gas, SI = log10(fugacity). Fugacity = pressure * phi / 1 atm.
  For ideal gases, phi = 1.

Initial solution 10.	

-----------------------------Solution composition------------------------------

	Elements           Molality       Moles

	Cl                5.000e-03   5.000e-03  Charge balance
	Na                5.000e-03   5.000e-03

----------------------------Description of solution----------------------------

                                       pH  =   7.000    
                                       pe  =   4.000    
      Specific Conductance (µS/cm,  25°C)  = 599
                          Density (g/cm³)  =   0.99725
                               Volume (L)  =   1.00305
                        Viscosity (mPa s)  =   0.89074
                        Activity of water  =   1.000
                 Ionic strength (mol/kgw)  =   5.000e-03
                       Mass of water (kg)  =   1.000e+00
                 Total alkalinity (eq/kg)  =   2.008e-09
                         Temperature (°C)  =  25.00
                  Electrical balance (eq)  =  -3.535e-12
 Percent error, 100*(Cat-|An|)/(Cat+|An|)  =  -0.00
                               Iterations  =   7 (15 overall)
                                  Total H  = 1.110124e+02
                                  Total O  = 5.550622e+01

----------------------------Distribution of species----------------------------

                                               Log       Log       Log    mole V
   Species          Molality    Activity  Molality  Activity     Gamma   cm³/mol

   OH-             1.093e-07   1.012e-07    -6.961    -6.995    -0.033     -4.07
   H+              1.071e-07   1.000e-07    -6.970    -7.000    -0.030      0.00
   H2O             5.551e+01   9.998e-01     1.744    -0.000     0.000     18.07
Cl            5.000e-03
   Cl-             5.000e-03   4.632e-03    -2.301    -2.334    -0.033     18.11
   HCl             1.588e-10   1.596e-10    -9.799    -9.797     0.002     (0)  
H(0)          1.414e-25
   H2              7.071e-26   7.079e-26   -25.151   -25.150     0.001     28.61
Na            5.000e-03
   Na+             5.000e-03   4.639e-03    -2.301    -2.334    -0.033     -1.42
O(0)          0.000e+00
   O2              0.000e+00   0.000e+00   -42.081   -42.080     0.001     30.40

------------------------------Saturation indices-------------------------------

  Phase               SI** log IAP   log K(298 K,   1 atm)

  H2(g)           -22.05    -25.15   -3.10  H2
  H2O(g)           -1.50     -0.00    1.50  H2O
  Halite           -6.24     -4.67    1.57  NaCl
  O2(g)           -39.19    -42.08   -2.89  O2

**For a gas, SI = log10(fugacity). Fugacity = pressure * phi / 1 atm.
  For ideal gases, phi = 1.

Initial solution 11.	

-----------------------------Solution composition------------------------------

	Elements           Molality       Moles

	Cl                1.000e-02   1.000e-02  Charge balance
	Na                1.000e-02   1.000e-02

----------------------------Description of solution----------------------------

                                       pH  =   7.000    
                                       pe  =   4.000    
      Specific Conductance (µS/cm,  25°C)  = 1177
                          Density (g/cm³)  =   0.99746
                               Volume (L)  =   1.00313
                        Viscosity (mPa s)  =   0.89124
                        Activity of water  =   1.000
                 Ionic strength (mol/kgw)  =   1.000e-02
                       Mass of water (kg)  =   1.000e+00
                 Total alkalinity (eq/kg)  =   2.625e-09
                         Temperature (°C)  =  25.00
                  Electrical balance (eq)  =  -2.632e-20
 Percent error, 100*(Cat-|An|)/(Cat+|An|)  =  -0.00
                               Iterations  =   8 (23 overall)
                                  Total H  = 1.110124e+02
                                  Total O  = 5.550622e+01

----------------------------Distribution of species----------------------------

                                               Log       Log       Log    mole V
   Species          Molality    Activity  Molality  Activity     Gamma   cm³/mol

   OH-             1.124e-07   1.012e-07    -6.949    -6.995    -0.046     -4.03
   H+              1.095e-07   1.000e-07    -6.961    -7.000    -0.039      0.00
   H2O             5.551e+01   9.997e-01     1.744    -0.000     0.000     18.07
Cl            1.000e-02
   Cl-             1.000e-02   9.007e-03    -2.000    -2.045    -0.045     18.14
   HCl             3.073e-10   3.103e-10    -9.512    -9.508     0.004     (0)  
H(0)          1.413e-25
   H2              7.063e-26   7.079e-26   -25.151   -25.150     0.001     28.61
Na            1.000e-02
   Na+             1.000e-02   9.033e-03    -2.000    -2.044    -0.044     -1.38
O(0)          0.000e+00
   O2              0.000e+00   0.000e+00   -42.081   -42.080     0.001     30.40

------------------------------Saturation indices-------------------------------

  Phase               SI** log IAP   log K(298 K,   1 atm)

  H2(g)           -22.05    -25.15   -3.10  H2
  H2O(g)           -1.50     -0.00    1.50  H2O
  Halite           -5.66     -4.09    1.57  NaCl
  O2(g)           -39.19    -42.08   -2.89  O2

**For a gas, SI = log10(fugacity). Fugacity = pressure * phi / 1 atm.
  For ideal gases, phi = 1.

Initial solution 12.	

-----------------------------Solution composition------------------------------

	Elements           Molality       Moles

	Cl                2.000e-02   2.000e-02  Charge balance
	Na                2.000e-02   2.000e-02

----------------------------Description of solution----------------------------

                                       pH  =   7.000    
                                       pe  =   4.000    
      Specific Conductance (µS/cm,  25°C)  = 2301
                          Density (g/cm³)  =   0.99787
                               Volume (L)  =   1.00330
                        Viscosity (mPa s)  =   0.89214
                        Activity of water  =   0.999
                 Ionic strength (mol/kgw)  =   2.000e-02
                       Mass of water (kg)  =   1.000e+00
                 Total alkalinity (eq/kg)  =   3.668e-09
                         Temperature (°C)  =  25.00
                  Electrical balance (eq)  =  -3.512e-15
 Percent error, 100*(Cat-|An|)/(Cat+|An|)  =  -0.00
                               Iterations  =   7 (30 overall)
                                  Total H  = 1.110124e+02
                                  Total O  = 5.550622e+01

----------------------------Distribution of species----------------------------

                                               Log       Log       Log    mole V
   Species          Molality    Activity  Molality  Activity     Gamma   cm³/mol

   OH-             1.167e-07   1.011e-07    -6.933    -6.995    -0.062     -3.98
   H+              1.124e-07   1.000e-07    -6.949    -7.000    -0.051      0.00
   H2O             5.551e+01   9.993e-01     1.744    -0.000     0.000     18.07
Cl            2.000e-02
   Cl-             2.000e-02   1.736e-02    -1.699    -1.760    -0.061     18.18
   HCl             5.866e-10   5.982e-10    -9.232    -9.223     0.009     (0)  
H(0)          1.409e-25
   H2              7.047e-26   7.079e-26   -25.152   -25.150     0.002     28.61
Na            2.000e-02
   Na+             2.000e-02   1.746e-02    -1.699    -1.758    -0.059     -1.32
O(0)          0.000e+00
   O2              0.000e+00   0.000e+00   -42.083   -42.081     0.002     30.40

------------------------------Saturation indices-------------------------------

  Phase               SI** log IAP   log K(298 K,   1 atm)

  H2(g)           -22.05    -25.15   -3.10  H2
  H2O(g)           -1.50     -0.00    1.50  H2O
  Halite           -5.09     -3.52    1.57  NaCl
  O2(g)           -39.19    -42.08   -2.89  O2

**For a gas, SI = log10(fugacity). Fugacity = pressure * phi / 1 atm.
  For ideal gases, phi = 1.

Initial solution 13.	

-----------------------------Solution composition------------------------------

	Elements           Molality       Moles

	Cl                5.000e-02   5.000e-02  Charge balance
	Na                5.000e-02   5.000e-02

----------------------------Description of solution----------------------------

                                       pH  =   7.000    
                                       pe  =   4.000    
      Specific Conductance (µS/cm,  25°C)  = 5523
                          Density (g/cm³)  =   0.99911
                               Volume (L)  =   1.00382
                        Viscosity (mPa s)  =   0.89461
                        Activity of water  =   0.998
                 Ionic strength (mol/kgw)  =   5.000e-02
                       Mass of water (kg)  =   1.000e+00
                 Total alkalinity (eq/kg)  =   6.055e-09
                         Temperature (°C)  =  25.00
                  Electrical balance (eq)  =  -7.319e-15
 Percent error, 100*(Cat-|An|)/(Cat+|An|)  =  -0.00
                               Iterations  =   6 (36 overall)
                                  Total H  = 1.110124e+02
                                  Total O  = 5.550622e+01

----------------------------Distribution of species----------------------------

                                               Log       Log       Log    mole V
   Species          Molality    Activity  Molality  Activity     Gamma   cm³/mol

   OH-             1.245e-07   1.010e-07    -6.905    -6.995    -0.091     -3.87
   H+              1.171e-07   1.000e-07    -6.931    -7.000    -0.069      0.00
   H2O             5.551e+01   9.983e-01     1.744    -0.001     0.000     18.07
Cl            5.000e-02
   Cl-             5.000e-02   4.072e-02    -1.301    -1.390    -0.089     18.25
   HCl             1.336e-09   1.403e-09    -8.874    -8.853     0.021     (0)  
H(0)          1.400e-25
   H2              6.998e-26   7.079e-26   -25.155   -25.150     0.005     28.61
Na            5.000e-02
   Na+             5.000e-02   4.124e-02    -1.301    -1.385    -0.084     -1.21
O(0)          0.000e+00
   O2              0.000e+00   0.000e+00   -42.086   -42.081     0.005     30.40

------------------------------Saturation indices-------------------------------

  Phase               SI** log IAP   log K(298 K,   1 atm)

  H2(g)           -22.05    -25.15   -3.10  H2
  H2O(g)           -1.50     -0.00    1.50  H2O
  Halite           -4.34     -2.77    1.57  NaCl
  O2(g)           -39.19    -42.08   -2.89  O2

**For a gas, SI = log10(fugacity). Fugacity = pressure * phi / 1 atm.
  For ideal gases, phi = 1.

Initial solution 14.	

-----------------------------Solution composition------------------------------

	Elements           Molality       Moles

	Cl                1.000e-01   1.000e-01  Charge balance
	Na                1.000e-01   1.000e-01

----------------------------Description of solution----------------------------

                                       pH  =   7.000    
                                       pe  =   4.000    
      Specific Conductance (µS/cm,  25°C)  = 10609
                          Density (g/cm³)  =   1.00115
                               Volume (L)  =   1.00469
                        Viscosity (mPa s)  =   0.89854
                        Activity of water  =   0.997
                 Ionic strength (mol/kgw)  =   1.000e-01
                       Mass of water (kg)  =   1.000e+00
                 Total alkalinity (eq/kg)  =   8.896e-09
                         Temperature (°C)  =  25.00
                  Electrical balance (eq)  =  -1.966e-13
 Percent error, 100*(Cat-|An|)/(Cat+|An|)  =  -0.00
                               Iterations  =   5 (41 overall)
                                  Total H  = 1.110124e+02
                                  Total O  = 5.550622e+01

----------------------------Distribution of species----------------------------

                                               Log       Log       Log    mole V
   Species          Molality    Activity  Molality  Activity     Gamma   cm³/mol

   OH-             1.324e-07   1.009e-07    -6.878    -6.996    -0.118     -3.73
   H+              1.212e-07   1.000e-07    -6.917    -7.000    -0.083      0.00
   H2O             5.551e+01   9.966e-01     1.744    -0.001     0.000     18.07
Cl            1.000e-01
   Cl-             1.000e-01   7.666e-02    -1.000    -1.115    -0.115     18.34
   HCl             2.394e-09   2.641e-09    -8.621    -8.578     0.043     (0)  
H(0)          1.384e-25
   H2              6.918e-26   7.079e-26   -25.160   -25.150     0.010     28.61
Na            1.000e-01
   Na+             1.000e-01   7.851e-02    -1.000    -1.105    -0.105     -1.09
O(0)          0.000e+00
   O2              0.000e+00   0.000e+00   -42.093   -42.083     0.010     30.40

------------------------------Saturation indices-------------------------------

  Phase               SI** log IAP   log K(298 K,   1 atm)

  H2(g)           -22.05    -25.15   -3.10  H2
  H2O(g)           -1.50     -0.00    1.50  H2O
  Halite           -3.79     -2.22    1.57  NaCl
  O2(g)           -39.19    -42.08   -2.89  O2

**For a gas, SI = log10(fugacity). Fugacity = pressure * phi / 1 atm.
  For ideal gases, phi = 1.

------------------
End of simulation.
------------------

------------------------------------
Reading input data for simulation 3.
------------------------------------

	SOLUTION_SPREAD
	 units mol/kgw
	Cl	pH	HB Chem Phys
	5.00E-04	1 charge	4.23E+02
	1.00E-03	1 charge	4.21E+02
	5.00E-03	1 charge	4.16E+02
	1.00E-02	1 charge	4.12E+02
	2.00E-02	1 charge	4.07E+02
	5.00E-02	1 charge	3.99E+02
	1.00E-01	1 charge	3.91E+02
	END
-------------------------------------------
Beginning of initial solution calculations.
-------------------------------------------

Initial solution 15.	

-----------------------------Solution composition------------------------------

	Elements           Molality       Moles

	Cl                5.000e-04   5.000e-04

----------------------------Description of solution----------------------------

                                       pH  =   3.312      Charge balance
                                       pe  =   4.000    
      Specific Conductance (µS/cm,  25°C)  = 210
                          Density (g/cm³)  =   0.99705
                               Volume (L)  =   1.00297
                        Viscosity (mPa s)  =   0.89009
                        Activity of water  =   1.000
                 Ionic strength (mol/kgw)  =   4.999e-04
                       Mass of water (kg)  =   1.000e+00
                 Total alkalinity (eq/kg)  =  -5.000e-04
                         Temperature (°C)  =  25.00
                  Electrical balance (eq)  =   4.526e-19
 Percent error, 100*(Cat-|An|)/(Cat+|An|)  =   0.00
                               Iterations  =  10
                                  Total H  = 1.110129e+02
                                  Total O  = 5.550622e+01

----------------------------Distribution of species----------------------------

                                               Log       Log       Log    mole V
   Species          Molality    Activity  Molality  Activity     Gamma   cm³/mol

   H+              4.999e-04   4.878e-04    -3.301    -3.312    -0.011      0.00
   OH-             2.129e-11   2.075e-11   -10.672   -10.683    -0.011     -4.12
   H2O             5.551e+01   1.000e+00     1.744    -0.000     0.000     18.07
Cl            5.000e-04
   Cl-             4.999e-04   4.873e-04    -3.301    -3.312    -0.011     18.07
   HCl             8.184e-08   8.188e-08    -7.087    -7.087     0.000     (0)  
H(0)          3.368e-18
   H2              1.684e-18   1.684e-18   -17.774   -17.774     0.000     28.61
O(0)          0.000e+00
   O2              0.000e+00   0.000e+00   -56.833   -56.833     0.000     30.40

------------------------------Saturation indices-------------------------------

  Phase               SI** log IAP   log K(298 K,   1 atm)

  H2(g)           -14.67    -17.77   -3.10  H2
  H2O(g)           -1.50     -0.00    1.50  H2O
  O2(g)           -53.94    -56.83   -2.89  O2

**For a gas, SI = log10(fugacity). Fugacity = pressure * phi / 1 atm.
  For ideal gases, phi = 1.

Initial solution 16.	

-----------------------------Solution composition------------------------------

	Elements           Molality       Moles

	Cl                1.000e-03   1.000e-03

----------------------------Description of solution----------------------------

                                       pH  =   3.015      Charge balance
                                       pe  =   4.000    
      Specific Conductance (µS/cm,  25°C)  = 419
                          Density (g/cm³)  =   0.99706
                               Volume (L)  =   1.00298
                        Viscosity (mPa s)  =   0.89013
                        Activity of water  =   1.000
                 Ionic strength (mol/kgw)  =   9.997e-04
                       Mass of water (kg)  =   1.000e+00
                 Total alkalinity (eq/kg)  =  -1.000e-03
                         Temperature (°C)  =  25.00
                  Electrical balance (eq)  =   3.596e-16
 Percent error, 100*(Cat-|An|)/(Cat+|An|)  =   0.00
                               Iterations  =   9 (19 overall)
                                  Total H  = 1.110134e+02
                                  Total O  = 5.550622e+01

----------------------------Distribution of species----------------------------

                                               Log       Log       Log    mole V
   Species          Molality    Activity  Molality  Activity     Gamma   cm³/mol

   H+              9.997e-04   9.663e-04    -3.000    -3.015    -0.015      0.00
   OH-             1.086e-11   1.047e-11   -10.964   -10.980    -0.016     -4.11
   H2O             5.551e+01   1.000e+00     1.744    -0.000     0.000     18.07
Cl            1.000e-03
   Cl-             9.997e-04   9.646e-04    -3.000    -3.016    -0.016     18.07
   HCl             3.208e-07   3.211e-07    -6.494    -6.493     0.000     (0)  
H(0)          1.322e-17
   H2              6.609e-18   6.610e-18   -17.180   -17.180     0.000     28.61
O(0)          0.000e+00
   O2              0.000e+00   0.000e+00   -58.021   -58.020     0.000     30.40

------------------------------Saturation indices-------------------------------

  Phase               SI** log IAP   log K(298 K,   1 atm)

  H2(g)           -14.08    -17.18   -3.10  H2
  H2O(g)           -1.50     -0.00    1.50  H2O
  O2(g)           -55.13    -58.02   -2.89  O2

**For a gas, SI = log10(fugacity). Fugacity = pressure * phi / 1 atm.
  For ideal gases, phi = 1.

Initial solution 17.	

-----------------------------Solution composition------------------------------

	Elements           Molality       Moles

	Cl                5.000e-03   5.000e-03

----------------------------Description of solution----------------------------

                                       pH  =   2.331      Charge balance
                                       pe  =   4.000    
      Specific Conductance (µS/cm,  25°C)  = 2074
                          Density (g/cm³)  =   0.99713
                               Volume (L)  =   1.00306
                        Viscosity (mPa s)  =   0.89038
                        Activity of water  =   1.000
                 Ionic strength (mol/kgw)  =   4.993e-03
                       Mass of water (kg)  =   1.000e+00
                 Total alkalinity (eq/kg)  =  -5.000e-03
                         Temperature (°C)  =  25.00
                  Electrical balance (eq)  =   2.188e-12
 Percent error, 100*(Cat-|An|)/(Cat+|An|)  =   0.00
                               Iterations  =   7 (26 overall)
                                  Total H  = 1.110174e+02
                                  Total O  = 5.550622e+01

----------------------------Distribution of species----------------------------

                                               Log       Log       Log    mole V
   Species          Molality    Activity  Molality  Activity     Gamma   cm³/mol

   H+              4.993e-03   4.661e-03    -2.302    -2.331    -0.030      0.00
   OH-             2.344e-12   2.171e-12   -11.630   -11.663    -0.033     -4.07
   H2O             5.551e+01   9.998e-01     1.744    -0.000     0.000     18.07
Cl            5.000e-03
   Cl-             4.993e-03   4.626e-03    -2.302    -2.335    -0.033     18.11
   HCl             7.392e-06   7.428e-06    -5.131    -5.129     0.002     (0)  
H(0)          3.073e-16
   H2              1.537e-16   1.538e-16   -15.813   -15.813     0.000     28.61
O(0)          0.000e+00
   O2              0.000e+00   0.000e+00   -60.755   -60.754     0.000     30.40

------------------------------Saturation indices-------------------------------

  Phase               SI** log IAP   log K(298 K,   1 atm)

  H2(g)           -12.71    -15.81   -3.10  H2
  H2O(g)           -1.50     -0.00    1.50  H2O
  O2(g)           -57.86    -60.75   -2.89  O2

**For a gas, SI = log10(fugacity). Fugacity = pressure * phi / 1 atm.
  For ideal gases, phi = 1.

Initial solution 18.	

-----------------------------Solution composition------------------------------

	Elements           Molality       Moles

	Cl                1.000e-02   1.000e-02

----------------------------Description of solution----------------------------

                                       pH  =   2.041      Charge balance
                                       pe  =   4.000    
      Specific Conductance (µS/cm,  25°C)  = 4121
                          Density (g/cm³)  =   0.99723
                               Volume (L)  =   1.00315
                        Viscosity (mPa s)  =   0.89066
                        Activity of water  =   1.000
                 Ionic strength (mol/kgw)  =   9.972e-03
                       Mass of water (kg)  =   1.000e+00
                 Total alkalinity (eq/kg)  =  -1.000e-02
                         Temperature (°C)  =  25.00
                  Electrical balance (eq)  =   5.715e-18
 Percent error, 100*(Cat-|An|)/(Cat+|An|)  =   0.00
                               Iterations  =   7 (33 overall)
                                  Total H  = 1.110224e+02
                                  Total O  = 5.550622e+01

----------------------------Distribution of species----------------------------

                                               Log       Log       Log    mole V
   Species          Molality    Activity  Molality  Activity     Gamma   cm³/mol

   H+              9.972e-03   9.109e-03    -2.001    -2.041    -0.039      0.00
   OH-             1.234e-12   1.111e-12   -11.909   -11.954    -0.046     -4.03
   H2O             5.551e+01   9.997e-01     1.744    -0.000     0.000     18.07
Cl            1.000e-02
   Cl-             9.972e-03   8.983e-03    -2.001    -2.047    -0.045     18.14
   HCl             2.791e-05   2.819e-05    -4.554    -4.550     0.004     (0)  
H(0)          1.172e-15
   H2              5.860e-16   5.874e-16   -15.232   -15.231     0.001     28.61
O(0)          0.000e+00
   O2              0.000e+00   0.000e+00   -61.919   -61.918     0.001     30.40

------------------------------Saturation indices-------------------------------

  Phase               SI** log IAP   log K(298 K,   1 atm)

  H2(g)           -12.13    -15.23   -3.10  H2
  H2O(g)           -1.50     -0.00    1.50  H2O
  O2(g)           -59.03    -61.92   -2.89  O2

**For a gas, SI = log10(fugacity). Fugacity = pressure * phi / 1 atm.
  For ideal gases, phi = 1.

Initial solution 19.	

-----------------------------Solution composition------------------------------

	Elements           Molality       Moles

	Cl                2.000e-02   2.000e-02

----------------------------Description of solution----------------------------

                                       pH  =   1.752      Charge balance
                                       pe  =   4.000    
      Specific Conductance (µS/cm,  25°C)  = 8169
                          Density (g/cm³)  =   0.99741
                               Volume (L)  =   1.00333
                        Viscosity (mPa s)  =   0.89119
                        Activity of water  =   0.999
                 Ionic strength (mol/kgw)  =   1.990e-02
                       Mass of water (kg)  =   1.000e+00
                 Total alkalinity (eq/kg)  =  -2.000e-02
                         Temperature (°C)  =  25.00
                  Electrical balance (eq)  =   3.884e-15
 Percent error, 100*(Cat-|An|)/(Cat+|An|)  =   0.00
                               Iterations  =   6 (39 overall)
                                  Total H  = 1.110324e+02
                                  Total O  = 5.550622e+01

----------------------------Distribution of species----------------------------

                                               Log       Log       Log    mole V
   Species          Molality    Activity  Molality  Activity     Gamma   cm³/mol

   H+              1.990e-02   1.770e-02    -1.701    -1.752    -0.051      0.00
   OH-             6.589e-13   5.714e-13   -12.181   -12.243    -0.062     -3.98
   H2O             5.551e+01   9.993e-01     1.744    -0.000     0.000     18.07
Cl            2.000e-02
   Cl-             1.990e-02   1.728e-02    -1.701    -1.762    -0.061     18.18
   HCl             1.033e-04   1.054e-04    -3.986    -3.977     0.008     (0)  
H(0)          4.416e-15
   H2              2.208e-15   2.218e-15   -14.656   -14.654     0.002     28.61
O(0)          0.000e+00
   O2              0.000e+00   0.000e+00   -63.075   -63.073     0.002     30.40

------------------------------Saturation indices-------------------------------

  Phase               SI** log IAP   log K(298 K,   1 atm)

  H2(g)           -11.55    -14.65   -3.10  H2
  H2O(g)           -1.50     -0.00    1.50  H2O
  O2(g)           -60.18    -63.07   -2.89  O2

**For a gas, SI = log10(fugacity). Fugacity = pressure * phi / 1 atm.
  For ideal gases, phi = 1.

Initial solution 20.	

-----------------------------Solution composition------------------------------

	Elements           Molality       Moles

	Cl                5.000e-02   5.000e-02

----------------------------Description of solution----------------------------

                                       pH  =   1.374      Charge balance
                                       pe  =   4.000    
      Specific Conductance (µS/cm,  25°C)  = 20059
                          Density (g/cm³)  =   0.99796
                               Volume (L)  =   1.00387
                        Viscosity (mPa s)  =   0.89275
                        Activity of water  =   0.998
                 Ionic strength (mol/kgw)  =   4.944e-02
                       Mass of water (kg)  =   1.000e+00
                 Total alkalinity (eq/kg)  =  -5.000e-02
                         Temperature (°C)  =  25.00
                  Electrical balance (eq)  =   1.757e-15
 Percent error, 100*(Cat-|An|)/(Cat+|An|)  =   0.00
                               Iterations  =   5 (44 overall)
                                  Total H  = 1.110624e+02
                                  Total O  = 5.550622e+01

----------------------------Distribution of species----------------------------

                                               Log       Log       Log    mole V
   Species          Molality    Activity  Molality  Activity     Gamma   cm³/mol

   H+              4.944e-02   4.223e-02    -1.306    -1.374    -0.068      0.00
   OH-             2.946e-13   2.392e-13   -12.531   -12.621    -0.090     -3.87
   H2O             5.551e+01   9.983e-01     1.744    -0.001     0.000     18.07
Cl            5.000e-02
   Cl-             4.944e-02   4.030e-02    -1.306    -1.395    -0.089     18.25
   HCl             5.586e-04   5.863e-04    -3.253    -3.232     0.021     (0)  
H(0)          2.497e-14
   H2              1.248e-14   1.263e-14   -13.904   -13.899     0.005     28.61
O(0)          0.000e+00
   O2              0.000e+00   0.000e+00   -64.589   -64.584     0.005     30.40

------------------------------Saturation indices-------------------------------

  Phase               SI** log IAP   log K(298 K,   1 atm)

  H2(g)           -10.80    -13.90   -3.10  H2
  H2O(g)           -1.50     -0.00    1.50  H2O
  O2(g)           -61.69    -64.58   -2.89  O2

**For a gas, SI = log10(fugacity). Fugacity = pressure * phi / 1 atm.
  For ideal gases, phi = 1.

Initial solution 21.	

-----------------------------Solution composition------------------------------

	Elements           Molality       Moles

	Cl                1.000e-01   1.000e-01

----------------------------Description of solution----------------------------

                                       pH  =   1.091      Charge balance
                                       pe  =   4.000    
      Specific Conductance (µS/cm,  25°C)  = 39256
                          Density (g/cm³)  =   0.99889
                               Volume (L)  =   1.00476
                        Viscosity (mPa s)  =   0.89541
                        Activity of water  =   0.997
                 Ionic strength (mol/kgw)  =   9.809e-02
                       Mass of water (kg)  =   1.000e+00
                 Total alkalinity (eq/kg)  =  -1.000e-01
                         Temperature (°C)  =  25.00
                  Electrical balance (eq)  =  -4.206e-15
 Percent error, 100*(Cat-|An|)/(Cat+|An|)  =  -0.00
                               Iterations  =   4 (48 overall)
                                  Total H  = 1.111124e+02
                                  Total O  = 5.550622e+01

----------------------------Distribution of species----------------------------

                                               Log       Log       Log    mole V
   Species          Molality    Activity  Molality  Activity     Gamma   cm³/mol

   H+              9.809e-02   8.104e-02    -1.008    -1.091    -0.083      0.00
   OH-             1.631e-13   1.245e-13   -12.787   -12.905    -0.117     -3.74
   H2O             5.551e+01   9.966e-01     1.744    -0.001     0.000     18.07
Cl            1.000e-01
   Cl-             9.809e-02   7.533e-02    -1.008    -1.123    -0.115     18.34
   HCl             1.910e-03   2.103e-03    -2.719    -2.677     0.042     (0)  
H(0)          9.091e-14
   H2              4.545e-14   4.649e-14   -13.342   -13.333     0.010     28.61
O(0)          0.000e+00
   O2              0.000e+00   0.000e+00   -65.727   -65.718     0.010     30.40

------------------------------Saturation indices-------------------------------

  Phase               SI** log IAP   log K(298 K,   1 atm)

  H2(g)           -10.23    -13.33   -3.10  H2
  H2O(g)           -1.50     -0.00    1.50  H2O
  O2(g)           -62.83    -65.72   -2.89  O2

**For a gas, SI = log10(fugacity). Fugacity = pressure * phi / 1 atm.
  For ideal gases, phi = 1.

------------------
End of simulation.
------------------

------------------------------------
Reading input data for simulation 4.
------------------------------------

	SOLUTION_SPREAD
	 units mol/kgw
	Cl	Ca	HB Chem Phys
	5.00E-04	1 charge	1.32E+02
	1.00E-03	1 charge	1.30E+02
	5.00E-03	1 charge	1.24E+02
	1.00E-02	1 charge	1.20E+02
	2.00E-02	1 charge	1.16E+02
	5.00E-02	1 charge	1.09E+02
	1.00E-01	1 charge	1.02E+02
	END
-------------------------------------------
Beginning of initial solution calculations.
-------------------------------------------

Initial solution 22.	

-----------------------------Solution composition------------------------------

	Elements           Molality       Moles

	Ca                2.500e-04   2.500e-04  Charge balance
	Cl                5.000e-04   5.000e-04

----------------------------Description of solution----------------------------

                                       pH  =   7.000    
                                       pe  =   4.000    
      Specific Conductance (µS/cm,  25°C)  = 65
                          Density (g/cm³)  =   0.99707
                               Volume (L)  =   1.00297
                        Viscosity (mPa s)  =   0.89040
                        Activity of water  =   1.000
                 Ionic strength (mol/kgw)  =   7.501e-04
                       Mass of water (kg)  =   1.000e+00
                 Total alkalinity (eq/kg)  =   1.762e-09
                         Temperature (°C)  =  25.00
                  Electrical balance (eq)  =   2.014e-18
 Percent error, 100*(Cat-|An|)/(Cat+|An|)  =   0.00
                               Iterations  =   6
                                  Total H  = 1.110124e+02
                                  Total O  = 5.550622e+01

----------------------------Distribution of species----------------------------

                                               Log       Log       Log    mole V
   Species          Molality    Activity  Molality  Activity     Gamma   cm³/mol

   OH-             1.044e-07   1.012e-07    -6.981    -6.995    -0.014     -4.11
   H+              1.030e-07   1.000e-07    -6.987    -7.000    -0.013      0.00
   H2O             5.551e+01   1.000e+00     1.744    -0.000     0.000     18.07
Ca            2.500e-04
   Ca+2            2.500e-04   2.211e-04    -3.602    -3.655    -0.053    -18.16
   CaOH+           3.785e-10   3.669e-10    -9.422    -9.435    -0.013     (0)  
Cl            5.000e-04
   Cl-             5.000e-04   4.847e-04    -3.301    -3.315    -0.014     18.07
   HCl             1.668e-11   1.670e-11   -10.778   -10.777     0.000     (0)  
H(0)          1.416e-25
   H2              7.078e-26   7.079e-26   -25.150   -25.150     0.000     28.61
O(0)          0.000e+00
   O2              0.000e+00   0.000e+00   -42.080   -42.080     0.000     30.40

------------------------------Saturation indices-------------------------------

  Phase               SI** log IAP   log K(298 K,   1 atm)

  H2(g)           -22.05    -25.15   -3.10  H2
  H2O(g)           -1.50     -0.00    1.50  H2O
  O2(g)           -39.19    -42.08   -2.89  O2

**For a gas, SI = log10(fugacity). Fugacity = pressure * phi / 1 atm.
  For ideal gases, phi = 1.

Initial solution 23.	

-----------------------------Solution composition------------------------------

	Elements           Molality       Moles

	Ca                5.000e-04   5.000e-04  Charge balance
	Cl                1.000e-03   1.000e-03

----------------------------Description of solution----------------------------

                                       pH  =   7.000    
                                       pe  =   4.000    
      Specific Conductance (µS/cm,  25°C)  = 129
                          Density (g/cm³)  =   0.99709
                               Volume (L)  =   1.00297
                        Viscosity (mPa s)  =   0.89060
                        Activity of water  =   1.000
                 Ionic strength (mol/kgw)  =   1.500e-03
                       Mass of water (kg)  =   1.000e+00
                 Total alkalinity (eq/kg)  =   2.250e-09
                         Temperature (°C)  =  25.00
                  Electrical balance (eq)  =   9.557e-16
 Percent error, 100*(Cat-|An|)/(Cat+|An|)  =   0.00
                               Iterations  =   5 (11 overall)
                                  Total H  = 1.110124e+02
                                  Total O  = 5.550622e+01

----------------------------Distribution of species----------------------------

                                               Log       Log       Log    mole V
   Species          Molality    Activity  Molality  Activity     Gamma   cm³/mol

   OH-             1.057e-07   1.012e-07    -6.976    -6.995    -0.019     -4.10
   H+              1.042e-07   1.000e-07    -6.982    -7.000    -0.018      0.00
   H2O             5.551e+01   1.000e+00     1.744    -0.000     0.000     18.07
Ca            5.000e-04
   Ca+2            5.000e-04   4.216e-04    -3.301    -3.375    -0.074    -18.12
   CaOH+           7.306e-10   6.997e-10    -9.136    -9.155    -0.019     (0)  
Cl            1.000e-03
   Cl-             1.000e-03   9.575e-04    -3.000    -3.019    -0.019     18.08
   HCl             3.294e-11   3.298e-11   -10.482   -10.482     0.001     (0)  
H(0)          1.415e-25
   H2              7.077e-26   7.079e-26   -25.150   -25.150     0.000     28.61
O(0)          0.000e+00
   O2              0.000e+00   0.000e+00   -42.080   -42.080     0.000     30.40

------------------------------Saturation indices-------------------------------

  Phase               SI** log IAP   log K(298 K,   1 atm)

  H2(g)           -22.05    -25.15   -3.10  H2
  H2O(g)           -1.50     -0.00    1.50  H2O
  O2(g)           -39.19    -42.08   -2.89  O2

**For a gas, SI = log10(fugacity). Fugacity = pressure * phi / 1 atm.
  For ideal gases, phi = 1.

Initial solution 24.	

-----------------------------Solution composition------------------------------

	Elements           Molality       Moles

	Ca                2.500e-03   2.500e-03  Charge balance
	Cl                5.000e-03   5.000e-03

----------------------------Description of solution----------------------------

                                       pH  =   7.000    
                                       pe  =   4.000    
      Specific Conductance (µS/cm,  25°C)  = 621
                          Density (g/cm³)  =   0.99727
                               Volume (L)  =   1.00301
                        Viscosity (mPa s)  =   0.89169
                        Activity of water  =   1.000
                 Ionic strength (mol/kgw)  =   7.500e-03
                       Mass of water (kg)  =   1.000e+00
                 Total alkalinity (eq/kg)  =   5.611e-09
                         Temperature (°C)  =  25.00
                  Electrical balance (eq)  =   1.439e-14
 Percent error, 100*(Cat-|An|)/(Cat+|An|)  =   0.00
                               Iterations  =   5 (16 overall)
                                  Total H  = 1.110124e+02
                                  Total O  = 5.550622e+01

----------------------------Distribution of species----------------------------

                                               Log       Log       Log    mole V
   Species          Molality    Activity  Molality  Activity     Gamma   cm³/mol

   OH-             1.110e-07   1.012e-07    -6.955    -6.995    -0.040     -4.05
   H+              1.084e-07   1.000e-07    -6.965    -7.000    -0.035      0.00
   H2O             5.551e+01   9.999e-01     1.744    -0.000     0.000     18.07
Ca            2.500e-03
   Ca+2            2.500e-03   1.756e-03    -2.602    -2.756    -0.153    -17.97
   CaOH+           3.191e-09   2.914e-09    -8.496    -8.536    -0.040     (0)  
Cl            5.000e-03
   Cl-             5.000e-03   4.561e-03    -2.301    -2.341    -0.040     18.13
   HCl             1.560e-10   1.571e-10    -9.807    -9.804     0.003     (0)  
H(0)          1.413e-25
   H2              7.067e-26   7.079e-26   -25.151   -25.150     0.001     28.61
O(0)          0.000e+00
   O2              0.000e+00   0.000e+00   -42.081   -42.080     0.001     30.40

------------------------------Saturation indices-------------------------------

  Phase               SI** log IAP   log K(298 K,   1 atm)

  H2(g)           -22.05    -25.15   -3.10  H2
  H2O(g)           -1.50     -0.00    1.50  H2O
  O2(g)           -39.19    -42.08   -2.89  O2

**For a gas, SI = log10(fugacity). Fugacity = pressure * phi / 1 atm.
  For ideal gases, phi = 1.

Initial solution 25.	

-----------------------------Solution composition------------------------------

	Elements           Molality       Moles

	Ca                5.000e-03   5.000e-03  Charge balance
	Cl                1.000e-02   1.000e-02

----------------------------Description of solution----------------------------

                                       pH  =   7.000    
                                       pe  =   4.000    
      Specific Conductance (µS/cm,  25°C)  = 1207
                          Density (g/cm³)  =   0.99750
                               Volume (L)  =   1.00306
                        Viscosity (mPa s)  =   0.89277
                        Activity of water  =   1.000
                 Ionic strength (mol/kgw)  =   1.500e-02
                       Mass of water (kg)  =   1.000e+00
                 Total alkalinity (eq/kg)  =   9.194e-09
                         Temperature (°C)  =  25.00
                  Electrical balance (eq)  =   9.670e-11
 Percent error, 100*(Cat-|An|)/(Cat+|An|)  =   0.00
                               Iterations  =   6 (22 overall)
                                  Total H  = 1.110124e+02
                                  Total O  = 5.550622e+01

----------------------------Distribution of species----------------------------

                                               Log       Log       Log    mole V
   Species          Molality    Activity  Molality  Activity     Gamma   cm³/mol

   OH-             1.148e-07   1.012e-07    -6.940    -6.995    -0.055     -4.01
   H+              1.111e-07   1.000e-07    -6.954    -7.000    -0.046      0.00
   H2O             5.551e+01   9.997e-01     1.744    -0.000     0.000     18.07
Ca            5.000e-03
   Ca+2            5.000e-03   3.115e-03    -2.301    -2.507    -0.206    -17.86
   CaOH+           5.843e-09   5.168e-09    -8.233    -8.287    -0.053     (0)  
Cl            1.000e-02
   Cl-             1.000e-02   8.826e-03    -2.000    -2.054    -0.054     18.16
   HCl             2.996e-10   3.040e-10    -9.523    -9.517     0.006     (0)  
H(0)          1.411e-25
   H2              7.055e-26   7.079e-26   -25.152   -25.150     0.002     28.61
O(0)          0.000e+00
   O2              0.000e+00   0.000e+00   -42.082   -42.080     0.002     30.40

------------------------------Saturation indices-------------------------------

  Phase               SI** log IAP   log K(298 K,   1 atm)

  H2(g)           -22.05    -25.15   -3.10  H2
  H2O(g)           -1.50     -0.00    1.50  H2O
  O2(g)           -39.19    -42.08   -2.89  O2

**For a gas, SI = log10(fugacity). Fugacity = pressure * phi / 1 atm.
  For ideal gases, phi = 1.

Initial solution 26.	

-----------------------------Solution composition------------------------------

	Elements           Molality       Moles

	Ca                1.000e-02   1.000e-02  Charge balance
	Cl                2.000e-02   2.000e-02

----------------------------Description of solution----------------------------

                                       pH  =   7.000    
                                       pe  =   4.000    
      Specific Conductance (µS/cm,  25°C)  = 2328
                          Density (g/cm³)  =   0.99796
                               Volume (L)  =   1.00315
                        Viscosity (mPa s)  =   0.89470
                        Activity of water  =   0.999
                 Ionic strength (mol/kgw)  =   3.000e-02
                       Mass of water (kg)  =   1.000e+00
                 Total alkalinity (eq/kg)  =   1.538e-08
                         Temperature (°C)  =  25.00
                  Electrical balance (eq)  =   4.035e-13
 Percent error, 100*(Cat-|An|)/(Cat+|An|)  =   0.00
                               Iterations  =   8 (30 overall)
                                  Total H  = 1.110124e+02
                                  Total O  = 5.550622e+01

----------------------------Distribution of species----------------------------

                                               Log       Log       Log    mole V
   Species          Molality    Activity  Molality  Activity     Gamma   cm³/mol

   OH-             1.199e-07   1.012e-07    -6.921    -6.995    -0.074     -3.94
   H+              1.144e-07   1.000e-07    -6.942    -7.000    -0.058      0.00
   H2O             5.551e+01   9.995e-01     1.744    -0.000     0.000     18.07
Ca            1.000e-02
   Ca+2            1.000e-02   5.369e-03    -2.000    -2.270    -0.270    -17.74
   CaOH+           1.048e-08   8.905e-09    -7.980    -8.050    -0.071     (0)  
Cl            2.000e-02
   Cl-             2.000e-02   1.692e-02    -1.699    -1.772    -0.073     18.21
   HCl             5.659e-10   5.828e-10    -9.247    -9.235     0.013     (0)  
H(0)          1.406e-25
   H2              7.031e-26   7.079e-26   -25.153   -25.150     0.003     28.61
O(0)          0.000e+00
   O2              0.000e+00   0.000e+00   -42.083   -42.080     0.003     30.40

------------------------------Saturation indices-------------------------------

  Phase               SI** log IAP   log K(298 K,   1 atm)

  H2(g)           -22.05    -25.15   -3.10  H2
  H2O(g)           -1.50     -0.00    1.50  H2O
  O2(g)           -39.19    -42.08   -2.89  O2

**For a gas, SI = log10(fugacity). Fugacity = pressure * phi / 1 atm.
  For ideal gases, phi = 1.

Initial solution 27.	

-----------------------------Solution composition------------------------------

	Elements           Molality       Moles

	Ca                2.500e-02   2.500e-02  Charge balance
	Cl                5.000e-02   5.000e-02

----------------------------Description of solution----------------------------

                                       pH  =   7.000    
                                       pe  =   4.000    
      Specific Conductance (µS/cm,  25°C)  = 5471
                          Density (g/cm³)  =   0.99933
                               Volume (L)  =   1.00344
                        Viscosity (mPa s)  =   0.89990
                        Activity of water  =   0.999
                 Ionic strength (mol/kgw)  =   7.500e-02
                       Mass of water (kg)  =   1.000e+00
                 Total alkalinity (eq/kg)  =   3.040e-08
                         Temperature (°C)  =  25.00
                  Electrical balance (eq)  =   1.194e-10
 Percent error, 100*(Cat-|An|)/(Cat+|An|)  =   0.00
                               Iterations  =   7 (37 overall)
                                  Total H  = 1.110124e+02
                                  Total O  = 5.550622e+01

----------------------------Distribution of species----------------------------

                                               Log       Log       Log    mole V
   Species          Molality    Activity  Molality  Activity     Gamma   cm³/mol

   OH-             1.291e-07   1.011e-07    -6.889    -6.995    -0.106     -3.80
   H+              1.194e-07   1.000e-07    -6.923    -7.000    -0.077      0.00
   H2O             5.551e+01   9.987e-01     1.744    -0.001     0.000     18.07
Ca            2.500e-02
   Ca+2            2.500e-02   1.059e-02    -1.602    -1.975    -0.373    -17.52
   CaOH+           2.201e-08   1.755e-08    -7.657    -7.756    -0.098     (0)  
Cl            5.000e-02
   Cl-             5.000e-02   3.935e-02    -1.301    -1.405    -0.104     18.30
   HCl             1.260e-09   1.356e-09    -8.900    -8.868     0.032     (0)  
H(0)          1.392e-25
   H2              6.958e-26   7.079e-26   -25.158   -25.150     0.008     28.61
O(0)          0.000e+00
   O2              0.000e+00   0.000e+00   -42.089   -42.081     0.008     30.40

------------------------------Saturation indices-------------------------------

  Phase               SI** log IAP   log K(298 K,   1 atm)

  H2(g)           -22.05    -25.15   -3.10  H2
  H2O(g)           -1.50     -0.00    1.50  H2O
  O2(g)           -39.19    -42.08   -2.89  O2

**For a gas, SI = log10(fugacity). Fugacity = pressure * phi / 1 atm.
  For ideal gases, phi = 1.

Initial solution 28.	

-----------------------------Solution composition------------------------------

	Elements           Molality       Moles

	Ca                5.000e-02   5.000e-02  Charge balance
	Cl                1.000e-01   1.000e-01

----------------------------Description of solution----------------------------

                                       pH  =   7.000    
                                       pe  =   4.000    
      Specific Conductance (µS/cm,  25°C)  = 10337
                          Density (g/cm³)  =   1.00160
                               Volume (L)  =   1.00394
                        Viscosity (mPa s)  =   0.90796
                        Activity of water  =   0.997
                 Ionic strength (mol/kgw)  =   1.500e-01
                       Mass of water (kg)  =   1.000e+00
                 Total alkalinity (eq/kg)  =   5.043e-08
                         Temperature (°C)  =  25.00
                  Electrical balance (eq)  =   3.436e-14
 Percent error, 100*(Cat-|An|)/(Cat+|An|)  =   0.00
                               Iterations  =   7 (44 overall)
                                  Total H  = 1.110124e+02
                                  Total O  = 5.550622e+01

----------------------------Distribution of species----------------------------

                                               Log       Log       Log    mole V
   Species          Molality    Activity  Molality  Activity     Gamma   cm³/mol

   OH-             1.383e-07   1.010e-07    -6.859    -6.996    -0.137     -3.61
   H+              1.236e-07   1.000e-07    -6.908    -7.000    -0.092      0.00
   H2O             5.551e+01   9.974e-01     1.744    -0.001     0.000     18.07
Ca            5.000e-02
   Ca+2            5.000e-02   1.741e-02    -1.301    -1.759    -0.458    -17.31
   CaOH+           3.794e-08   2.882e-08    -7.421    -7.540    -0.119     (0)  
Cl            1.000e-01
   Cl-             1.000e-01   7.369e-02    -1.000    -1.133    -0.133     18.40
   HCl             2.192e-09   2.539e-09    -8.659    -8.595     0.064     (0)  
H(0)          1.368e-25
   H2              6.839e-26   7.079e-26   -25.165   -25.150     0.015     28.61
O(0)          0.000e+00
   O2              0.000e+00   0.000e+00   -42.097   -42.082     0.015     30.40

------------------------------Saturation indices-------------------------------

  Phase               SI** log IAP   log K(298 K,   1 atm)

  H2(g)           -22.05    -25.15   -3.10  H2
  H2O(g)           -1.50     -0.00    1.50  H2O
  O2(g)           -39.19    -42.08   -2.89  O2

**For a gas, SI = log10(fugacity). Fugacity = pressure * phi / 1 atm.
  For ideal gases, phi = 1.

------------------
End of simulation.
------------------

------------------------------------
Reading input data for simulation 5.
------------------------------------

	SOLUTION_SPREAD
	 units mol/kgw
	Cl	Mg	HB Chem Phys
	5.00E-04	1 charge	125.6
	1.00E-03	1 charge	124.1
	5.00E-03	1 charge	118.3
	1.00E-02	1 charge	114.6
	2.00E-02	1 charge	110
	5.00E-02	1 charge	103.1
	1.00E-01	1 charge	97.1
	END
-------------------------------------------
Beginning of initial solution calculations.
-------------------------------------------

Initial solution 29.	

-----------------------------Solution composition------------------------------

	Elements           Molality       Moles

	Cl                5.000e-04   5.000e-04
	Mg                2.500e-04   2.500e-04  Charge balance

----------------------------Description of solution----------------------------

                                       pH  =   7.000    
                                       pe  =   4.000    
      Specific Conductance (µS/cm,  25°C)  = 62
                          Density (g/cm³)  =   0.99706
                               Volume (L)  =   1.00297
                        Viscosity (mPa s)  =   0.89045
                        Activity of water  =   1.000
                 Ionic strength (mol/kgw)  =   7.501e-04
                       Mass of water (kg)  =   1.000e+00
                 Total alkalinity (eq/kg)  =   9.664e-09
                         Temperature (°C)  =  25.00
                  Electrical balance (eq)  =   2.448e-18
 Percent error, 100*(Cat-|An|)/(Cat+|An|)  =   0.00
                               Iterations  =   6
                                  Total H  = 1.110124e+02
                                  Total O  = 5.550622e+01

----------------------------Distribution of species----------------------------

                                               Log       Log       Log    mole V
   Species          Molality    Activity  Molality  Activity     Gamma   cm³/mol

   OH-             1.044e-07   1.012e-07    -6.981    -6.995    -0.014     -4.11
   H+              1.030e-07   1.000e-07    -6.987    -7.000    -0.013      0.00
   H2O             5.551e+01   1.000e+00     1.744    -0.000     0.000     18.07
Cl            5.000e-04
   Cl-             5.000e-04   4.847e-04    -3.301    -3.315    -0.014     18.07
   HCl             1.668e-11   1.670e-11   -10.778   -10.777     0.000     (0)  
H(0)          1.416e-25
   H2              7.078e-26   7.079e-26   -25.150   -25.150     0.000     28.61
Mg            2.500e-04
   Mg+2            2.500e-04   2.212e-04    -3.602    -3.655    -0.053    -21.84
   MgOH+           8.280e-09   8.032e-09    -8.082    -8.095    -0.013     (0)  
O(0)          0.000e+00
   O2              0.000e+00   0.000e+00   -42.080   -42.080     0.000     30.40

------------------------------Saturation indices-------------------------------

  Phase               SI** log IAP   log K(298 K,   1 atm)

  H2(g)           -22.05    -25.15   -3.10  H2
  H2O(g)           -1.50     -0.00    1.50  H2O
  O2(g)           -39.19    -42.08   -2.89  O2

**For a gas, SI = log10(fugacity). Fugacity = pressure * phi / 1 atm.
  For ideal gases, phi = 1.

Initial solution 30.	

-----------------------------Solution composition------------------------------

	Elements           Molality       Moles

	Cl                1.000e-03   1.000e-03
	Mg                5.000e-04   5.000e-04  Charge balance

----------------------------Description of solution----------------------------

                                       pH  =   7.000    
                                       pe  =   4.000    
      Specific Conductance (µS/cm,  25°C)  = 123
                          Density (g/cm³)  =   0.99708
                               Volume (L)  =   1.00297
                        Viscosity (mPa s)  =   0.89069
                        Activity of water  =   1.000
                 Ionic strength (mol/kgw)  =   1.500e-03
                       Mass of water (kg)  =   1.000e+00
                 Total alkalinity (eq/kg)  =   1.750e-08
                         Temperature (°C)  =  25.00
                  Electrical balance (eq)  =   8.874e-16
 Percent error, 100*(Cat-|An|)/(Cat+|An|)  =   0.00
                               Iterations  =   5 (11 overall)
                                  Total H  = 1.110124e+02
                                  Total O  = 5.550622e+01

[...]

   OH-             1.048e-07   1.011e-07    -6.980    -6.995    -0.016     -4.11
   H+              1.036e-07   1.001e-07    -6.985    -7.000    -0.015      0.00
   H2O             5.551e+01   1.000e+00     1.744    -0.000     0.000     18.07
Cl            5.000e-04
   Cl-             4.998e-04   4.823e-04    -3.301    -3.317    -0.016     18.07
   LaCl+2          1.392e-07   1.208e-07    -6.856    -6.918    -0.062     (0)  
   HCl             1.661e-11   1.663e-11   -10.780   -10.779     0.000     (0)  
H(0)          2.628e-40
   H2              1.314e-40   1.314e-40   -39.881   -39.881     0.000     28.61
La            1.667e-04
   La+3            1.665e-04   1.227e-04    -3.779    -3.911    -0.133     (0)  
   LaCl+2          1.392e-07   1.208e-07    -6.856    -6.918    -0.062     (0)  
O(0)          4.827e-13
   O2              2.413e-13   2.414e-13   -12.617   -12.617     0.000     30.40

------------------------------Saturation indices-------------------------------

  Phase               SI** log IAP   log K(298 K,   1 atm)

  H2(g)           -36.78    -39.88   -3.10  H2
  H2O(g)           -1.50     -0.00    1.50  H2O
  O2(g)            -9.72    -12.62   -2.89  O2

**For a gas, SI = log10(fugacity). Fugacity = pressure * phi / 1 atm.
  For ideal gases, phi = 1.

Reaction step 2.

Using solution 1.	
Using reaction 1.	

Reaction 1.	

	  1.000e-03 moles of the following reaction have been added:

	                 Relative
	Reactant            moles

	LaCl3                0.33330

	                 Relative
	Element             moles
	Cl                   0.99990
	La                   0.33330

-----------------------------Solution composition------------------------------

	Elements           Molality       Moles

	Cl                9.999e-04   9.999e-04
	La                3.333e-04   3.333e-04

----------------------------Description of solution----------------------------

                                       pH  =   6.999      Charge balance
                                       pe  =  11.366      Adjusted to redox equilibrium
      Specific Conductance (µS/cm,  25°C)  = 157
                          Density (g/cm³)  =   0.99711
                               Volume (L)  =   1.00298
                        Viscosity (mPa s)  =   0.89082
                        Activity of water  =   1.000
                 Ionic strength (mol/kgw)  =   1.998e-03
                       Mass of water (kg)  =   1.000e+00
                 Total alkalinity (eq/kg)  =   1.217e-09
                         Temperature (°C)  =  25.00
                  Electrical balance (eq)  =  -1.217e-09
 Percent error, 100*(Cat-|An|)/(Cat+|An|)  =  -0.00
                               Iterations  =  10
                                  Total H  = 1.110124e+02
                                  Total O  = 5.550622e+01

----------------------------Distribution of species----------------------------

                                               Log       Log       Log    mole V
   Species          Molality    Activity  Molality  Activity     Gamma   cm³/mol

   OH-             1.062e-07   1.010e-07    -6.974    -6.996    -0.022     -4.09
   H+              1.049e-07   1.002e-07    -6.979    -6.999    -0.020      0.00
   H2O             5.551e+01   1.000e+00     1.744    -0.000     0.000     18.07
Cl            9.999e-04
   Cl-             9.994e-04   9.509e-04    -3.000    -3.022    -0.022     18.09
   LaCl+2          5.183e-07   4.256e-07    -6.285    -6.371    -0.086     (0)  
   HCl             3.275e-11   3.282e-11   -10.485   -10.484     0.001     (0)  
H(0)          2.631e-40
   H2              1.315e-40   1.316e-40   -39.881   -39.881     0.000     28.61
La            3.333e-04
   La+3            3.328e-04   2.192e-04    -3.478    -3.659    -0.181     (0)  
   LaCl+2          5.183e-07   4.256e-07    -6.285    -6.371    -0.086     (0)  
O(0)          4.812e-13
   O2              2.406e-13   2.407e-13   -12.619   -12.619     0.000     30.40

------------------------------Saturation indices-------------------------------

  Phase               SI** log IAP   log K(298 K,   1 atm)

  H2(g)           -36.78    -39.88   -3.10  H2
  H2O(g)           -1.50     -0.00    1.50  H2O
  O2(g)            -9.73    -12.62   -2.89  O2

**For a gas, SI = log10(fugacity). Fugacity = pressure * phi / 1 atm.
  For ideal gases, phi = 1.

Reaction step 3.

Using solution 1.	
Using reaction 1.	

Reaction 1.	

	  5.000e-03 moles of the following reaction have been added:

	                 Relative
	Reactant            moles

	LaCl3                0.33330

	                 Relative
	Element             moles
	Cl                   0.99990
	La                   0.33330

-----------------------------Solution composition------------------------------

	Elements           Molality       Moles

	Cl                5.000e-03   5.000e-03
	La                1.667e-03   1.667e-03

----------------------------Description of solution----------------------------

                                       pH  =   6.997      Charge balance
                                       pe  =  11.367      Adjusted to redox equilibrium
      Specific Conductance (µS/cm,  25°C)  = 734
                          Density (g/cm³)  =   0.99736
                               Volume (L)  =   1.00306
                        Viscosity (mPa s)  =   0.89180
                        Activity of water  =   1.000
                 Ionic strength (mol/kgw)  =   9.969e-03
                       Mass of water (kg)  =   1.000e+00
                 Total alkalinity (eq/kg)  =   1.217e-09
                         Temperature (°C)  =  25.00
                  Electrical balance (eq)  =  -1.217e-09
 Percent error, 100*(Cat-|An|)/(Cat+|An|)  =  -0.00
                               Iterations  =  10
                                  Total H  = 1.110124e+02
                                  Total O  = 5.550622e+01

----------------------------Distribution of species----------------------------

                                               Log       Log       Log    mole V
   Species          Molality    Activity  Molality  Activity     Gamma   cm³/mol

   OH-             1.116e-07   1.005e-07    -6.952    -6.998    -0.046     -4.03
   H+              1.103e-07   1.007e-07    -6.958    -6.997    -0.039      0.00
   H2O             5.551e+01   9.999e-01     1.744    -0.000     0.000     18.07
Cl            5.000e-03
   Cl-             4.989e-03   4.495e-03    -2.302    -2.347    -0.045     18.14
   LaCl+2          1.013e-05   6.730e-06    -4.994    -5.172    -0.177     (0)  
   HCl             1.544e-10   1.559e-10    -9.811    -9.807     0.004     (0)  
H(0)          2.650e-40
   H2              1.325e-40   1.328e-40   -39.878   -39.877     0.001     28.61
La            1.667e-03
   La+3            1.656e-03   7.333e-04    -2.781    -3.135    -0.354     (0)  
   LaCl+2          1.013e-05   6.730e-06    -4.994    -5.172    -0.177     (0)  
O(0)          4.716e-13
   O2              2.358e-13   2.364e-13   -12.627   -12.626     0.001     30.40

------------------------------Saturation indices-------------------------------

  Phase               SI** log IAP   log K(298 K,   1 atm)

  H2(g)           -36.78    -39.88   -3.10  H2
  H2O(g)           -1.50     -0.00    1.50  H2O
  O2(g)            -9.73    -12.63   -2.89  O2

**For a gas, SI = log10(fugacity). Fugacity = pressure * phi / 1 atm.
  For ideal gases, phi = 1.

Reaction step 4.

Using solution 1.	
Using reaction 1.	

Reaction 1.	

	  1.000e-02 moles of the following reaction have been added:

	                 Relative
	Reactant            moles

	LaCl3                0.33330

	                 Relative
	Element             moles
	Cl                   0.99990
	La                   0.33330

-----------------------------Solution composition------------------------------

	Elements           Molality       Moles

	Cl                9.999e-03   9.999e-03
	La                3.333e-03   3.333e-03

----------------------------Description of solution----------------------------

                                       pH  =   6.995      Charge balance
                                       pe  =  11.367      Adjusted to redox equilibrium
      Specific Conductance (µS/cm,  25°C)  = 1401
                          Density (g/cm³)  =   0.99768
                               Volume (L)  =   1.00315
                        Viscosity (mPa s)  =   0.89253
                        Activity of water  =   1.000
                 Ionic strength (mol/kgw)  =   1.989e-02
                       Mass of water (kg)  =   1.000e+00
                 Total alkalinity (eq/kg)  =   1.217e-09
                         Temperature (°C)  =  25.00
                  Electrical balance (eq)  =  -1.217e-09
 Percent error, 100*(Cat-|An|)/(Cat+|An|)  =  -0.00
                               Iterations  =  10
                                  Total H  = 1.110124e+02
                                  Total O  = 5.550622e+01

----------------------------Distribution of species----------------------------

                                               Log       Log       Log    mole V
   Species          Molality    Activity  Molality  Activity     Gamma   cm³/mol

   OH-             1.153e-07   9.997e-08    -6.938    -7.000    -0.062     -3.98
   H+              1.138e-07   1.012e-07    -6.944    -6.995    -0.051      0.00
   H2O             5.551e+01   9.998e-01     1.744    -0.000     0.000     18.07
Cl            9.999e-03
   Cl-             9.964e-03   8.653e-03    -2.002    -2.063    -0.061     18.18
   LaCl+2          3.521e-05   2.035e-05    -4.453    -4.691    -0.238     (0)  
   HCl             2.959e-10   3.017e-10    -9.529    -9.520     0.008     (0)  
H(0)          2.668e-40
   H2              1.334e-40   1.340e-40   -39.875   -39.873     0.002     28.61
La            3.333e-03
   La+3            3.298e-03   1.152e-03    -2.482    -2.939    -0.457     (0)  
   LaCl+2          3.521e-05   2.035e-05    -4.453    -4.691    -0.238     (0)  
O(0)          4.620e-13
   O2              2.310e-13   2.321e-13   -12.636   -12.634     0.002     30.40

------------------------------Saturation indices-------------------------------

  Phase               SI** log IAP   log K(298 K,   1 atm)

  H2(g)           -36.77    -39.87   -3.10  H2
  H2O(g)           -1.50     -0.00    1.50  H2O
  O2(g)            -9.74    -12.63   -2.89  O2

**For a gas, SI = log10(fugacity). Fugacity = pressure * phi / 1 atm.
  For ideal gases, phi = 1.

Reaction step 5.

Using solution 1.	
Using reaction 1.	

Reaction 1.	

	  2.000e-02 moles of the following reaction have been added:

	                 Relative
	Reactant            moles

	LaCl3                0.33330

	                 Relative
	Element             moles
	Cl                   0.99990
	La                   0.33330

-----------------------------Solution composition------------------------------

	Elements           Molality       Moles

	Cl                2.000e-02   2.000e-02
	La                6.666e-03   6.666e-03

----------------------------Description of solution----------------------------

                                       pH  =   6.991      Charge balance
                                       pe  =  11.367      Adjusted to redox equilibrium
      Specific Conductance (µS/cm,  25°C)  = 2633
                          Density (g/cm³)  =   0.99831
                               Volume (L)  =   1.00333
                        Viscosity (mPa s)  =   0.89357
                        Activity of water  =   1.000
                 Ionic strength (mol/kgw)  =   3.963e-02
                       Mass of water (kg)  =   1.000e+00
                 Total alkalinity (eq/kg)  =   1.217e-09
                         Temperature (°C)  =  25.00
                  Electrical balance (eq)  =  -1.217e-09
 Percent error, 100*(Cat-|An|)/(Cat+|An|)  =  -0.00
                               Iterations  =  10
                                  Total H  = 1.110124e+02
                                  Total O  = 5.550622e+01

----------------------------Distribution of species----------------------------

                                               Log       Log       Log    mole V
   Species          Molality    Activity  Molality  Activity     Gamma   cm³/mol

   OH-             1.200e-07   9.918e-08    -6.921    -7.004    -0.083     -3.91
   H+              1.182e-07   1.020e-07    -6.927    -6.991    -0.064      0.00
   H2O             5.551e+01   9.995e-01     1.744    -0.000     0.000     18.07
Cl            2.000e-02
   Cl-             1.988e-02   1.648e-02    -1.702    -1.783    -0.081     18.23
   LaCl+2          1.206e-04   5.857e-05    -3.919    -4.232    -0.314     (0)  
   HCl             5.571e-10   5.791e-10    -9.254    -9.237     0.017     (0)  
H(0)          2.694e-40
   H2              1.347e-40   1.360e-40   -39.871   -39.867     0.004     28.61
La            6.666e-03
   La+3            6.545e-03   1.741e-03    -2.184    -2.759    -0.575     (0)  
   LaCl+2          1.206e-04   5.857e-05    -3.919    -4.232    -0.314     (0)  
O(0)          4.466e-13
   O2              2.233e-13   2.253e-13   -12.651   -12.647     0.004     30.40

------------------------------Saturation indices-------------------------------

  Phase               SI** log IAP   log K(298 K,   1 atm)

  H2(g)           -36.77    -39.87   -3.10  H2
  H2O(g)           -1.50     -0.00    1.50  H2O
  O2(g)            -9.75    -12.65   -2.89  O2

**For a gas, SI = log10(fugacity). Fugacity = pressure * phi / 1 atm.
  For ideal gases, phi = 1.

Reaction step 6.

Using solution 1.	
Using reaction 1.	

Reaction 1.	

	  5.000e-02 moles of the following reaction have been added:

	                 Relative
	Reactant            moles

	LaCl3                0.33330

	                 Relative
	Element             moles
	Cl                   0.99990
	La                   0.33330

-----------------------------Solution composition------------------------------

	Elements           Molality       Moles

	Cl                5.000e-02   5.000e-02
	La                1.667e-02   1.667e-02

----------------------------Description of solution----------------------------

                                       pH  =   6.985      Charge balance
                                       pe  =  11.367      Adjusted to redox equilibrium
      Specific Conductance (µS/cm,  25°C)  = 5918
                          Density (g/cm³)  =   1.00022
                               Volume (L)  =   1.00387
                        Viscosity (mPa s)  =   0.89563
                        Activity of water  =   0.999
                 Ionic strength (mol/kgw)  =   9.816e-02
                       Mass of water (kg)  =   1.000e+00
                 Total alkalinity (eq/kg)  =   1.217e-09
                         Temperature (°C)  =  25.00
                  Electrical balance (eq)  =  -1.217e-09
 Percent error, 100*(Cat-|An|)/(Cat+|An|)  =  -0.00
                               Iterations  =  10
                                  Total H  = 1.110124e+02
                                  Total O  = 5.550622e+01

----------------------------Distribution of species----------------------------

                                               Log       Log       Log    mole V
   Species          Molality    Activity  Molality  Activity     Gamma   cm³/mol

   OH-             1.279e-07   9.757e-08    -6.893    -7.011    -0.117     -3.74
   H+              1.254e-07   1.036e-07    -6.902    -6.985    -0.083      0.00
   H2O             5.551e+01   9.989e-01     1.744    -0.000     0.000     18.07
Cl            5.000e-02
   Cl-             4.939e-02   3.793e-02    -1.306    -1.421    -0.115     18.34
   LaCl+2          6.093e-04   2.228e-04    -3.215    -3.652    -0.437     (0)  
   HCl             1.230e-09   1.354e-09    -8.910    -8.868     0.042     (0)  
H(0)          2.740e-40
   H2              1.370e-40   1.401e-40   -39.863   -39.854     0.010     28.61
La            1.667e-02
   La+3            1.606e-02   2.878e-03    -1.794    -2.541    -0.747     (0)  
   LaCl+2          6.093e-04   2.228e-04    -3.215    -3.652    -0.437     (0)  
O(0)          4.143e-13
   O2              2.071e-13   2.119e-13   -12.684   -12.674     0.010     30.40

------------------------------Saturation indices-------------------------------

  Phase               SI** log IAP   log K(298 K,   1 atm)

  H2(g)           -36.75    -39.85   -3.10  H2
  H2O(g)           -1.50     -0.00    1.50  H2O
  O2(g)            -9.78    -12.67   -2.89  O2

**For a gas, SI = log10(fugacity). Fugacity = pressure * phi / 1 atm.
  For ideal gases, phi = 1.

Reaction step 7.

Using solution 1.	
Using reaction 1.	

Reaction 1.	

	  1.000e-01 moles of the following reaction have been added:

	                 Relative
	Reactant            moles

	LaCl3                0.33330

	                 Relative
	Element             moles
	Cl                   0.99990
	La                   0.33330

-----------------------------Solution composition------------------------------

	Elements           Molality       Moles

	Cl                9.999e-02   9.999e-02
	La                3.333e-02   3.333e-02

----------------------------Description of solution----------------------------

                                       pH  =   6.978      Charge balance
                                       pe  =  11.368      Adjusted to redox equilibrium
      Specific Conductance (µS/cm,  25°C)  = 10697
                          Density (g/cm³)  =   1.00339
                               Volume (L)  =   1.00477
                        Viscosity (mPa s)  =   0.89795
                        Activity of water  =   0.998
                 Ionic strength (mol/kgw)  =   1.937e-01
                       Mass of water (kg)  =   1.000e+00
                 Total alkalinity (eq/kg)  =   1.217e-09
                         Temperature (°C)  =  25.00
                  Electrical balance (eq)  =  -1.215e-09
 Percent error, 100*(Cat-|An|)/(Cat+|An|)  =  -0.00
                               Iterations  =  10
                                  Total H  = 1.110124e+02
                                  Total O  = 5.550622e+01

----------------------------Distribution of species----------------------------

                                               Log       Log       Log    mole V
   Species          Molality    Activity  Molality  Activity     Gamma   cm³/mol

   OH-             1.352e-07   9.589e-08    -6.869    -7.018    -0.149     -3.51
   H+              1.318e-07   1.053e-07    -6.880    -6.978    -0.098      0.00
   H2O             5.551e+01   9.978e-01     1.744    -0.001     0.000     18.07
Cl            9.999e-02
   Cl-             9.791e-02   7.029e-02    -1.009    -1.153    -0.144     18.45
   LaCl+2          2.079e-03   5.940e-04    -2.682    -3.226    -0.544     (0)  
   HCl             2.109e-09   2.550e-09    -8.676    -8.593     0.082     (0)  
H(0)          2.763e-40
   H2              1.381e-40   1.444e-40   -39.860   -39.840     0.019     28.61
La            3.333e-02
   La+3            3.125e-02   4.139e-03    -1.505    -2.383    -0.878     (0)  
   LaCl+2          2.079e-03   5.940e-04    -2.682    -3.226    -0.544     (0)  
O(0)          3.804e-13
   O2              1.902e-13   1.989e-13   -12.721   -12.701     0.019     30.40

------------------------------Saturation indices-------------------------------

  Phase               SI** log IAP   log K(298 K,   1 atm)

  H2(g)           -36.74    -39.84   -3.10  H2
  H2O(g)           -1.50     -0.00    1.50  H2O
  O2(g)            -9.81    -12.70   -2.89  O2

**For a gas, SI = log10(fugacity). Fugacity = pressure * phi / 1 atm.
  For ideal gases, phi = 1.

------------------
End of simulation.
------------------

------------------------------------
Reading input data for simulation 9.
------------------------------------

