   Input file: errorinp
  Output file: errorinp.out
Database file: ../database/phreeqc.dat

------------------
Reading data base.
------------------

	SOLUTION_MASTER_SPECIES
	SOLUTION_SPECIES
	PHASES
	EXCHANGE_MASTER_SPECIES
	EXCHANGE_SPECIES
	SURFACE_MASTER_SPECIES
	SURFACE_SPECIES
	RATES
	END
------------------------------------
Reading input data for simulation 1.
------------------------------------

	DATABASE ../database/phreeqc.dat
	SOLUTION 1
		units mol/kgw
	SOLUTION 2
		K	1
		Br	1
	MIX
		1 0.5
		2 0.5
	EQUILIBRIUM_PHASES
		calcite
	EXCHANGE
		CaX2 1.0
	SURFACE
		Hfo_w 1.0 600 1
	REACTION 1
		NaCl	1
		100 mole
	KINETICS 3
	       Calcite
		       tol    1e-8
		       m0     3.e-3
		       m      3.e-3
		       parms  5.0      0.6
	GAS_PHASE 2
		CO2(g)  .0003
	SOLID_SOLUTION 5
	Carbonate
		component Calcite	0.0
		component Strontianite  0.0
	REACTION_TEMPERATURE
		31
	END
-------------------------------------------
Beginning of initial solution calculations.
-------------------------------------------

Initial solution 1.	

-----------------------------Solution composition------------------------------

	Elements           Molality       Moles

	Pure water     

----------------------------Description of solution----------------------------

                                       pH  =   7.000    
                                       pe  =   4.000    
       Specific Conductance (uS/cm, 25 oC) = 0
                          Density (g/cm3)  =   0.99705
                        Activity of water  =   1.000
                           Ionic strength  =   1.001e-07
                       Mass of water (kg)  =   1.000e+00
                 Total alkalinity (eq/kg)  =   1.082e-10
                    Total carbon (mol/kg)  =   0.000e+00
                       Total CO2 (mol/kg)  =   0.000e+00
                      Temperature (deg C)  =  25.000
                  Electrical balance (eq)  =  -1.082e-10
 Percent error, 100*(Cat-|An|)/(Cat+|An|)  =  -0.05
                               Iterations  =   0
                                  Total H  = 1.110124e+02
                                  Total O  = 5.550622e+01

----------------------------Distribution of species----------------------------

                                                   Log       Log         Log 
   Species                 Molality    Activity  Molality  Activity     Gamma

   OH-                    1.002e-07   1.001e-07    -6.999    -6.999    -0.000
   H+                     1.001e-07   1.000e-07    -7.000    -7.000    -0.000
   H2O                    5.551e+01   1.000e+00     1.744     0.000     0.000
H(0)             1.416e-25
   H2                     7.079e-26   7.079e-26   -25.150   -25.150     0.000
O(0)             0.000e+00
   O2                     0.000e+00   0.000e+00   -42.080   -42.080     0.000

------------------------------Saturation indices-------------------------------

	Phase               SI log IAP  log KT

	H2(g)           -22.00  -25.15   -3.15  H2
	H2O(g)           -1.51    0.00    1.51  H2O
	O2(g)           -39.19  -42.08   -2.89  O2

Initial solution 2.	

-----------------------------Solution composition------------------------------

	Elements           Molality       Moles

	Br                1.000e-03   1.000e-03
	K                 1.000e-03   1.000e-03

----------------------------Description of solution----------------------------

                                       pH  =   7.000    
                                       pe  =   4.000    
       Specific Conductance (uS/cm, 25 oC) = 145
                          Density (g/cm3)  =   0.99713
                        Activity of water  =   1.000
                           Ionic strength  =   1.000e-03
                       Mass of water (kg)  =   1.000e+00
                 Total alkalinity (eq/kg)  =   3.355e-10
                    Total carbon (mol/kg)  =   0.000e+00
                       Total CO2 (mol/kg)  =   0.000e+00
                      Temperature (deg C)  =  25.000
                  Electrical balance (eq)  =  -3.355e-10
 Percent error, 100*(Cat-|An|)/(Cat+|An|)  =  -0.00
                               Iterations  =   3
                                  Total H  = 1.110124e+02
                                  Total O  = 5.550622e+01

----------------------------Distribution of species----------------------------

                                                   Log       Log         Log 
   Species                 Molality    Activity  Molality  Activity     Gamma

   OH-                    1.038e-07   1.001e-07    -6.984    -7.000    -0.016
   H+                     1.034e-07   1.000e-07    -6.985    -7.000    -0.015
   H2O                    5.551e+01   1.000e+00     1.744    -0.000     0.000
Br               1.000e-03
   Br-                    1.000e-03   9.647e-04    -3.000    -3.016    -0.016
H(0)             1.416e-25
   H2                     7.078e-26   7.079e-26   -25.150   -25.150     0.000
K                1.000e-03
   K+                     1.000e-03   9.649e-04    -3.000    -3.016    -0.016
   KOH                    3.345e-11   3.345e-11   -10.476   -10.476     0.000
O(0)             0.000e+00
   O2                     0.000e+00   0.000e+00   -42.080   -42.080     0.000

------------------------------Saturation indices-------------------------------

	Phase               SI log IAP  log KT

	H2(g)           -22.00  -25.15   -3.15  H2
	H2O(g)           -1.51   -0.00    1.51  H2O
	O2(g)           -39.19  -42.08   -2.89  O2

-----------------------------------------
Beginning of batch-reaction calculations.
-----------------------------------------

Reaction step 1.

WARNING: Element Sr is contained in solid solution Strontianite (which has 0.0 mass),
but is not in solution or other phases.
WARNING: Maximum iterations exceeded, 100

WARNING: Numerical method failed with this set of convergence parameters.

WARNING: Trying smaller step size, pe step size 10, 5 ... 

WARNING: Element Sr is contained in solid solution Strontianite (which has 0.0 mass),
but is not in solution or other phases.
WARNING: Maximum iterations exceeded, 200

WARNING: Numerical method failed with this set of convergence parameters.

WARNING: Trying reduced tolerance 1e-16 ...

WARNING: Element Sr is contained in solid solution Strontianite (which has 0.0 mass),
but is not in solution or other phases.
WARNING: Maximum iterations exceeded, 200

WARNING: Numerical method failed with this set of convergence parameters.

WARNING: Trying increased tolerance 1e-14 ...

WARNING: Element Sr is contained in solid solution Strontianite (which has 0.0 mass),
but is not in solution or other phases.
WARNING: Maximum iterations exceeded, 200

WARNING: Numerical method failed with this set of convergence parameters.

WARNING: Trying diagonal scaling ...

WARNING: Element Sr is contained in solid solution Strontianite (which has 0.0 mass),
but is not in solution or other phases.
WARNING: Maximum iterations exceeded, 200

WARNING: Numerical method failed with this set of convergence parameters.

WARNING: Trying diagonal scaling and reduced tolerance 1e-16 ...

WARNING: Element Sr is contained in solid solution Strontianite (which has 0.0 mass),
but is not in solution or other phases.
WARNING: Maximum iterations exceeded, 200

WARNING: Numerical method failed with this set of convergence parameters.

WARNING: Trying scaling pure_phase columns 1e-10 ...

WARNING: Element Sr is contained in solid solution Strontianite (which has 0.0 mass),
but is not in solution or other phases.
WARNING: Maximum iterations exceeded, 200

WARNING: Numerical method failed with this set of convergence parameters.

WARNING: Trying scaling pure_phase columns and diagonal scale 1e-10 ...

WARNING: Element Sr is contained in solid solution Strontianite (which has 0.0 mass),
but is not in solution or other phases.
WARNING: Maximum iterations exceeded, 200

WARNING: Numerical method failed with this set of convergence parameters.

WARNING: Trying increased scaling 1e-09 ...

WARNING: Element Sr is contained in solid solution Strontianite (which has 0.0 mass),
but is not in solution or other phases.
WARNING: Maximum iterations exceeded, 200

WARNING: Numerical method failed with this set of convergence parameters.

WARNING: Skipping optimize equations for first 5 iterations ...

WARNING: Element Sr is contained in solid solution Strontianite (which has 0.0 mass),
but is not in solution or other phases.
WARNING: Maximum iterations exceeded, 100

WARNING: Numerical method failed with this set of convergence parameters.

WARNING: Adding inequality to make concentrations greater than zero.

WARNING: Element Sr is contained in solid solution Strontianite (which has 0.0 mass),
but is not in solution or other phases.
WARNING: Maximum iterations exceeded, 100

WARNING: Numerical method failed with this set of convergence parameters.

WARNING: Trying reduced tolerance 1e-17 ...

WARNING: Element Sr is contained in solid solution Strontianite (which has 0.0 mass),
but is not in solution or other phases.
WARNING: Maximum iterations exceeded, 200

WARNING: Numerical method failed with this set of convergence parameters.

WARNING: Trying reduced tolerance 1e-18 ...

WARNING: Element Sr is contained in solid solution Strontianite (which has 0.0 mass),
but is not in solution or other phases.
WARNING: Maximum iterations exceeded, 200

WARNING: Numerical method failed with this set of convergence parameters.

WARNING: The program has failed to converge to a numerical solution.

The following equations were not satisfied:
ERROR:                   Br has not converged. Total: 5.000000e-04	Calculated: 4.742579e-04	Residual: 2.574206e-05

ERROR:                    C has not converged. Total: 1.721231e-16	Calculated: 2.861217e-20	Residual: 1.720944e-16

ERROR:                   Ca has not converged. Total: 9.999877e-01	Calculated: 5.167287e-01	Residual: 4.832590e-01

ERROR:                   Cl has not converged. Total: 1.000000e+02	Calculated: 2.830167e+01	Residual: 7.169833e+01

ERROR:                    K has not converged. Total: 5.000000e-04	Calculated: 5.394321e-04	Residual: -3.943207e-05

ERROR:                   Na has not converged. Total: 1.000000e+02	Calculated: 3.794054e+01	Residual: 6.205946e+01

ERROR:               A(H2O) Activity of water has not converged. 	Residual: 4.229032e-01

ERROR:                   pH Charge balance has not converged. 	Residual: -1.043150e+01

ERROR:             Hydrogen Mass of hydrogen has not converged. 	Residual: -2.069000e+01

ERROR:               Oxygen Mass of oxygen has not converged. 	Residual: 4.546793e-01

ERROR:                    X Exchanger mass balance has not converged. 	Residual: 1.289375e+00

ERROR:                Hfo_w Surface mass balance has not converged. 	Residual: 4.749759e-01

ERROR:               Hfo_CB Surface charge/potential has not converged. 	Residual: -1.033312e+00

ERROR:            gas moles Total moles in gas phase has not converged. 	Residual: 1.000000e+00

ERROR:              Calcite Total moles in solid solution has not converged. 	Residual: 2.125942e+02

Using mix 1.	
Using exchange 1.	
Using surface 1.	
Using pure phase assemblage 1.	
Using solid solution assemblage 5.	
Using gas phase 2.	
Using temperature 1.	
Using reaction 1.	
Using kinetics 3.	Kinetics defined in simulation 1.

Mixture 1.	

	  5.000e-01 Solution 1	                                                       
	  5.000e-01 Solution 2	                                                       

Reaction 1.	Irreversible reaction defined in simulation 1.

	  1.000e+02 moles of the following reaction have been added:

	                 Relative
	Reactant            moles

	NaCl                 1.00000

	                 Relative
	Element             moles
	Cl                   1.00000
	Na                   1.00000

Kinetics 3.	Kinetics defined in simulation 1.

	Time step: 1 seconds

	Rate name       Delta Moles Total Moles   Reactant        Coefficient

	Calcite          -0.000e+00   3.000e-03   Calcite                   1

-----------------------------------Gas phase-----------------------------------


Total pressure:   1.0000   atmospheres
    Gas volume:   2.24e-04 liters

                                                        Moles in gas
                                            ----------------------------------
Component                log P           P     Initial       Final       Delta

CO2(g)                  -96.64   2.303e-97   1.226e-05   0.000e+00  -1.226e-05

-------------------------------Phase assemblage--------------------------------

                                                      Moles in assemblage
Phase                  SI log IAP  log KT      Initial       Final       Delta

Calcite           -106.59 -115.10   -8.52    1.000e+01           0  -1.000e+01

--------------------------------Solid solutions--------------------------------


Solid solution                Component        Moles  Delta moles   Mole fract

Carbonate                                   1.00e+01
                                Calcite     1.00e+01     1.00e+01     1.00e+00
                           Strontianite     1.00e-25     0.00e+00     1.00e-26

------------------------------Surface composition------------------------------

Hfo           
	  5.250e-01  Surface charge, eq
	  8.443e+01  sigma, C/m**2
	  2.877e-01  psi, V
	 -1.098e+01  -F*psi/RT
	  1.711e-05  exp(-F*psi/RT)
	  6.000e+02  specific area, m**2/g
	  6.000e+02  m**2 for   1.000e+00 g


Hfo_w         
	  1.000e+00  moles
	                                   Mole                     Log
	Species               Moles    Fraction    Molality    Molality

	Hfo_wOCa+         5.167e-01       0.517   5.259e-01      -0.279
	Hfo_wOH2+         8.326e-03       0.008   8.475e-03      -2.072
	Hfo_wOH           3.695e-05       0.000   3.761e-05      -4.425
	Hfo_wO-           3.756e-09       0.000   3.823e-09      -8.418

-----------------------------Exchange composition------------------------------

X                2.000e+00 mol

	                               Equiv-    Equivalent      Log 
	Species             Moles      alents      Fraction     Gamma

	NaX               7.106e-01   7.106e-01   9.999e-01     1.744
	KX                4.565e-05   4.565e-05   6.423e-05    -0.330
	CaX2              4.021e-08   8.043e-08   1.132e-07     4.004

-----------------------------Solution composition------------------------------

	Elements           Molality       Moles

	Br                4.828e-04   4.743e-04
	C                 2.913e-20   2.861e-20
	Ca                6.848e-05   6.727e-05
	Cl                2.881e+01   2.830e+01
	K                 5.027e-04   4.938e-04
	Na                3.790e+01   3.723e+01

----------------------------Description of solution----------------------------

                                       pH  =   0.170      Charge balance
                                       pe  =  -8.313      Adjusted to redox equilibrium
       Specific Conductance (uS/cm, 31 oC) = 4708402
                          Density (g/cm3)  =   1.52368
                        Activity of water  =   0.100
                           Ionic strength  =   3.385e+01
                       Mass of water (kg)  =   9.823e-01
                 Total alkalinity (eq/kg)  =  -9.956e-01
                       Total CO2 (mol/kg)  =   0.000e+00
                      Temperature (deg C)  =  31.000
                  Electrical balance (eq)  =   9.907e+00
 Percent error, 100*(Cat-|An|)/(Cat+|An|)  =  14.89
                               Iterations  = 201
                                  Total H  = 1.307764e+02
                                  Total O  = 5.452650e+01

----------------------------Distribution of species----------------------------

                                                   Log       Log         Log 
   Species                 Molality    Activity  Molality  Activity     Gamma

   H+                     9.956e-01   6.823e-01    -0.002    -0.166    -0.164
   OH-                    5.969e-15   2.439e-15   -14.224   -14.613    -0.389
   H2O                    5.551e+01   1.000e-01     1.744    -1.000     0.000
Br               4.828e-04
   Br-                    4.828e-04   1.738e-04    -3.316    -3.760    -0.444
C(-4)            2.913e-20
   CH4                    2.913e-20   7.073e-17   -19.536   -16.150     3.385
C(4)             0.000e+00
   CaHCO3+                0.000e+00   0.000e+00   -89.319   -89.583    -0.264
   HCO3-                  0.000e+00   0.000e+00  -105.051  -105.315    -0.264
   NaHCO3                 0.000e+00   0.000e+00  -107.385  -104.000     3.385
   CaCO3                  0.000e+00   0.000e+00  -109.648  -106.262     3.385
   CO2                    0.000e+00   0.000e+00  -110.259  -106.873     3.385
   CO3-2                  0.000e+00   0.000e+00  -114.335  -115.391    -1.056
   NaCO3-                 0.000e+00   0.000e+00  -121.950  -117.162     4.788
Ca               6.848e-05
   Ca+2                   6.848e-05   1.946e+00    -4.164     0.289     4.453
   CaOH+                  6.206e-18   3.809e-13   -17.207   -12.419     4.788
   CaHCO3+                0.000e+00   0.000e+00   -89.319   -89.583    -0.264
   CaCO3                  0.000e+00   0.000e+00  -109.648  -106.262     3.385
Cl               2.881e+01
   Cl-                    2.881e+01   3.791e+01     1.460     1.579     0.119
H(0)             2.112e+01
   H2                     1.056e+01   1.000e+03     1.024     4.409     3.385
K                5.027e-04
   K+                     5.027e-04   6.613e-04    -3.299    -3.180     0.119
   KOH                    5.308e-30   1.289e-26   -29.275   -25.890     3.385
Na               3.790e+01
   Na+                    3.790e+01   1.000e+03     1.579     3.772     2.193
   NaOH                   1.521e-17   3.693e-14   -16.818   -13.433     3.385
   NaHCO3                 0.000e+00   0.000e+00  -107.385  -104.000     3.385
   NaCO3-                 0.000e+00   0.000e+00  -121.950  -117.162     4.788
O(0)             0.000e+00
   O2                     0.000e+00   0.000e+00  -130.786  -127.401     3.385

------------------------------Saturation indices-------------------------------

	Phase               SI log IAP  log KT

	Aragonite      -106.73 -115.10   -8.38  CaCO3
	Calcite        -106.59 -115.10   -8.52  CaCO3
	CH4(g)          -13.24  -16.15   -2.91  CH4
	CO2(g)         -105.34 -106.87   -1.54  CO2
	H2(g)             7.58    4.41   -3.18  H2
	H2O(g)           -2.36   -1.00    1.36  H2O
	Halite            3.76    5.35    1.60  NaCl
	O2(g)          -124.47 -127.40   -2.93  O2

ERROR: Numerical method failed on all combinations of convergence parameters
Stopping.
