   Input file: errorinp
  Output file: errorinp.out
Database file: ../database/phreeqc.dat

------------------
Reading data base.
------------------

	SOLUTION_MASTER_SPECIES
	SOLUTION_SPECIES
	PHASES
	EXCHANGE_MASTER_SPECIES
	EXCHANGE_SPECIES
	SURFACE_MASTER_SPECIES
	SURFACE_SPECIES
	RATES
	END
------------------------------------
Reading input data for simulation 1.
------------------------------------

	DATABASE ../database/phreeqc.dat
	SOLUTION 1
		units mol/kgw
	SOLUTION 2
		K	1
		Br	1
	MIX
		1 0.5
		2 0.5
	EQUILIBRIUM_PHASES
		calcite
	EXCHANGE
		CaX2 1.0
	SURFACE
		Hfo_w 1.0 600 1
	REACTION 1
		NaCl	1
		100 mole
	KINETICS 3
	       Calcite
		       tol    1e-8
		       m0     3.e-3
		       m      3.e-3
		       parms  5.0      0.6
	GAS_PHASE 2
		CO2(g)  .0003
	SOLID_SOLUTION 5
	Carbonate
		component Calcite	0.0
		component Strontianite  0.0
	REACTION_TEMPERATURE
		31
	END
-------------------------------------------
Beginning of initial solution calculations.
-------------------------------------------

Initial solution 1.	

-----------------------------Solution composition------------------------------

	Elements           Molality       Moles

	Pure water     

----------------------------Description of solution----------------------------

                                       pH  =   7.000    
                                       pe  =   4.000    
       Specific Conductance (uS/cm, 25 oC) = 0
                          Density (g/cm3)  =   0.99705
                        Activity of water  =   1.000
                           Ionic strength  =   1.001e-07
                       Mass of water (kg)  =   1.000e+00
                 Total alkalinity (eq/kg)  =   1.082e-10
                    Total carbon (mol/kg)  =   0.000e+00
                       Total CO2 (mol/kg)  =   0.000e+00
                      Temperature (deg C)  =  25.00
                  Electrical balance (eq)  =  -1.082e-10
 Percent error, 100*(Cat-|An|)/(Cat+|An|)  =  -0.05
                               Iterations  =   0
                                  Total H  = 1.110124e+02
                                  Total O  = 5.550622e+01

----------------------------Distribution of species----------------------------

                                                   Log       Log         Log 
   Species                 Molality    Activity  Molality  Activity     Gamma

   OH-                    1.002e-07   1.001e-07    -6.999    -6.999    -0.000
   H+                     1.001e-07   1.000e-07    -7.000    -7.000    -0.000
   H2O                    5.551e+01   1.000e+00     1.744     0.000     0.000
H(0)             1.416e-25
   H2                     7.079e-26   7.079e-26   -25.150   -25.150     0.000
O(0)             0.000e+00
   O2                     0.000e+00   0.000e+00   -42.080   -42.080     0.000

------------------------------Saturation indices-------------------------------

	Phase               SI   log IAP   log K(298 K,   1 atm)

	H2(g)           -22.00    -25.15   -3.15  H2
	H2O(g)           -1.51      0.00    1.51  H2O
	O2(g)           -39.19    -42.08   -2.89  O2


Initial solution 2.	

-----------------------------Solution composition------------------------------

	Elements           Molality       Moles

	Br                1.000e-03   1.000e-03
	K                 1.000e-03   1.000e-03

----------------------------Description of solution----------------------------

                                       pH  =   7.000    
                                       pe  =   4.000    
       Specific Conductance (uS/cm, 25 oC) = 145
                          Density (g/cm3)  =   0.99713
                        Activity of water  =   1.000
                           Ionic strength  =   1.000e-03
                       Mass of water (kg)  =   1.000e+00
                 Total alkalinity (eq/kg)  =   3.355e-10
                    Total carbon (mol/kg)  =   0.000e+00
                       Total CO2 (mol/kg)  =   0.000e+00
                      Temperature (deg C)  =  25.00
                  Electrical balance (eq)  =  -3.355e-10
 Percent error, 100*(Cat-|An|)/(Cat+|An|)  =  -0.00
                               Iterations  =   3
                                  Total H  = 1.110124e+02
                                  Total O  = 5.550622e+01

----------------------------Distribution of species----------------------------

                                                   Log       Log         Log 
   Species                 Molality    Activity  Molality  Activity     Gamma

   OH-                    1.038e-07   1.001e-07    -6.984    -7.000    -0.016
   H+                     1.034e-07   1.000e-07    -6.985    -7.000    -0.015
   H2O                    5.551e+01   1.000e+00     1.744    -0.000     0.000
Br               1.000e-03
   Br-                    1.000e-03   9.647e-04    -3.000    -3.016    -0.016
H(0)             1.416e-25
   H2                     7.078e-26   7.079e-26   -25.150   -25.150     0.000
K                1.000e-03
   K+                     1.000e-03   9.649e-04    -3.000    -3.016    -0.016
   KOH                    3.345e-11   3.345e-11   -10.476   -10.476     0.000
O(0)             0.000e+00
   O2                     0.000e+00   0.000e+00   -42.080   -42.080     0.000

------------------------------Saturation indices-------------------------------

	Phase               SI   log IAP   log K(298 K,   1 atm)

	H2(g)           -22.00    -25.15   -3.15  H2
	H2O(g)           -1.51     -0.00    1.51  H2O
	O2(g)           -39.19    -42.08   -2.89  O2


-----------------------------------------
Beginning of batch-reaction calculations.
-----------------------------------------

Reaction step 1.

WARNING: Element Sr is contained in solid solution Strontianite (which has 0.0 mass),
but is not in solution or other phases.
WARNING: Maximum iterations exceeded, 100

WARNING: Numerical method failed with this set of convergence parameters.

WARNING: Trying smaller step size, pe step size 10, 5 ... 

WARNING: Element Sr is contained in solid solution Strontianite (which has 0.0 mass),
but is not in solution or other phases.
WARNING: Maximum iterations exceeded, 200

WARNING: Numerical method failed with this set of convergence parameters.

WARNING: Trying reduced tolerance 1e-16 ...

WARNING: Element Sr is contained in solid solution Strontianite (which has 0.0 mass),
but is not in solution or other phases.
WARNING: Maximum iterations exceeded, 200

WARNING: Numerical method failed with this set of convergence parameters.

WARNING: Trying increased tolerance 1e-14 ...

WARNING: Element Sr is contained in solid solution Strontianite (which has 0.0 mass),
but is not in solution or other phases.
WARNING: Maximum iterations exceeded, 200

WARNING: Numerical method failed with this set of convergence parameters.

WARNING: Trying diagonal scaling ...

WARNING: Element Sr is contained in solid solution Strontianite (which has 0.0 mass),
but is not in solution or other phases.
WARNING: Maximum iterations exceeded, 200

WARNING: Numerical method failed with this set of convergence parameters.

WARNING: Trying diagonal scaling and reduced tolerance 1e-16 ...

WARNING: Element Sr is contained in solid solution Strontianite (which has 0.0 mass),
but is not in solution or other phases.
WARNING: Maximum iterations exceeded, 200

WARNING: Numerical method failed with this set of convergence parameters.

WARNING: Trying scaling pure_phase columns 1e-10 ...

WARNING: Element Sr is contained in solid solution Strontianite (which has 0.0 mass),
but is not in solution or other phases.
WARNING: Maximum iterations exceeded, 200

WARNING: Numerical method failed with this set of convergence parameters.

WARNING: Trying scaling pure_phase columns and diagonal scale 1e-10 ...

WARNING: Element Sr is contained in solid solution Strontianite (which has 0.0 mass),
but is not in solution or other phases.
WARNING: Maximum iterations exceeded, 200

WARNING: Numerical method failed with this set of convergence parameters.

WARNING: Trying increased scaling 1e-09 ...

WARNING: Element Sr is contained in solid solution Strontianite (which has 0.0 mass),
but is not in solution or other phases.
WARNING: Maximum iterations exceeded, 200

WARNING: Numerical method failed with this set of convergence parameters.

WARNING: Skipping optimize equations for first 5 iterations ...

WARNING: Element Sr is contained in solid solution Strontianite (which has 0.0 mass),
but is not in solution or other phases.
WARNING: Maximum iterations exceeded, 100

WARNING: Numerical method failed with this set of convergence parameters.

WARNING: Adding inequality to make concentrations greater than zero.

WARNING: Element Sr is contained in solid solution Strontianite (which has 0.0 mass),
but is not in solution or other phases.
WARNING: Maximum iterations exceeded, 100

WARNING: Numerical method failed with this set of convergence parameters.

WARNING: Trying reduced tolerance 1e-17 ...

WARNING: Element Sr is contained in solid solution Strontianite (which has 0.0 mass),
but is not in solution or other phases.
WARNING: Maximum iterations exceeded, 200

WARNING: Numerical method failed with this set of convergence parameters.

WARNING: Trying reduced tolerance 1e-18 ...

WARNING: Element Sr is contained in solid solution Strontianite (which has 0.0 mass),
but is not in solution or other phases.
WARNING: Maximum iterations exceeded, 200

WARNING: Numerical method failed with this set of convergence parameters.

WARNING: The program has failed to converge to a numerical solution.

The following equations were not satisfied:
ERROR:                   Br has not converged. Total: 5.000000e-04	Calculated: 4.882434e-04	Residual: 1.175660e-05

ERROR:                    C has not converged. Total: 1.308858e-01	Calculated: 4.365802e-03	Residual: 1.265200e-01

ERROR:                   Ca has not converged. Total: 1.130874e+00	Calculated: 3.689228e-03	Residual: 1.127184e+00

ERROR:                   Cl has not converged. Total: 1.000000e+02	Calculated: 1.030109e+02	Residual: -3.010947e+00

ERROR:                    K has not converged. Total: 5.000000e-04	Calculated: 5.150540e-04	Residual: -1.505395e-05

ERROR:                   Na has not converged. Total: 1.000000e+02	Calculated: 1.286166e+02	Residual: -2.861663e+01

ERROR:               A(H2O) Activity of water has not converged. 	Residual: 1.345480e-08

ERROR:                   pH Charge balance has not converged. 	Residual: -2.284561e+01

ERROR:             Hydrogen Mass of hydrogen has not converged. 	Residual: 7.083208e-01

ERROR:               Oxygen Mass of oxygen has not converged. 	Residual: -2.950423e-01

ERROR:                    X Exchanger mass balance has not converged. 	Residual: -5.703776e-01

ERROR:                Hfo_w Surface mass balance has not converged. 	Residual: -3.119353e-01

ERROR:               Hfo_CB Surface charge/potential has not converged. 	Residual: 8.468258e+01

ERROR:              Calcite Total moles in solid solution has not converged. 	Residual: 5.102415e+00

Using mix 1.	
Using exchange 1.	
Using surface 1.	
Using pure phase assemblage 1.	
Using solid solution assemblage 5.	
Using gas phase 2.	
Using temperature 1.	
Using reaction 1.	
Using kinetics 3.	Kinetics defined in simulation 1.

Mixture 1.	

	  5.000e-01 Solution 1	                                                       
	  5.000e-01 Solution 2	                                                       

Reaction 1.	Irreversible reaction defined in simulation 1.

	  1.000e+02 moles of the following reaction have been added:

	                 Relative
	Reactant            moles

	NaCl                 1.00000

	                 Relative
	Element             moles
	Cl                   1.00000
	Na                   1.00000

Kinetics 3.	Kinetics defined in simulation 1.

	Time step: 1 seconds

	Rate name       Delta Moles Total Moles   Reactant        Coefficient

	Calcite          -0.000e+00   3.000e-03   Calcite                   1

----------------Fixed-pressure gas phase 2 dissolved completely----------------

-------------------------------Phase assemblage--------------------------------

                                                      Moles in assemblage
Phase               SI  log IAP  log K(T, P)   Initial       Final       Delta

Calcite          11.37     2.86     -8.52    1.000e+01           0  -1.000e+01

--------------------------------Solid solutions--------------------------------


Solid solution                Component        Moles  Delta moles   Mole fract

Carbonate                                   9.87e+00
                                Calcite     9.87e+00     9.87e+00     1.00e+00
                           Strontianite     1.00e-27     0.00e+00     1.01e-28

------------------------------Surface composition------------------------------

Hfo           
	 -1.961e-01  Surface charge, eq
	 -3.153e+01  sigma, C/m**2
	  2.318e-01  psi, V
	 -8.845e+00  -F*psi/RT
	  1.441e-04  exp(-F*psi/RT)
	  6.000e+02  specific area, m**2/g
	  6.000e+02  m**2 for   1.000e+00 g


Hfo_w         
	  1.000e+00  moles
	                                   Mole                     Log
	Species               Moles    Fraction    Molality    Molality

	Hfo_wOH           9.606e-01       0.961   9.715e-01      -0.013
	Hfo_wO-           2.737e-01       0.274   2.768e-01      -0.558
	Hfo_wOH2+         7.723e-02       0.077   7.811e-02      -1.107
	Hfo_wOCa+         4.129e-04       0.000   4.176e-04      -3.379

-----------------------------Exchange composition------------------------------

X                2.000e+00 mol

	                               Equiv-    Equivalent      Log 
	Species             Moles      alents      Fraction     Gamma

	NaX               2.570e+00   2.570e+00   1.000e+00     8.432
	KX                4.630e-05   4.630e-05   1.801e-05     1.433
	CaX2              2.075e-06   4.149e-06   1.614e-06    18.039

-----------------------------Solution composition------------------------------

	Elements           Molality       Moles

	Br                4.938e-04   4.882e-04
	C                 4.416e-03   4.366e-03
	Ca                3.312e-03   3.274e-03
	Cl                1.042e+02   1.030e+02
	K                 4.741e-04   4.688e-04
	Na                1.275e+02   1.260e+02

----------------------------Description of solution----------------------------

                                       pH  =   4.543      Charge balance
                                       pe  =  -1.913      Adjusted to redox equilibrium
       Specific Conductance (uS/cm, 31 oC) = 16322529
                          Density (g/cm3)  =   1.71725
                        Activity of water  =   0.076
                           Ionic strength  =   1.158e+02
                       Mass of water (kg)  =   9.887e-01
                 Total alkalinity (eq/kg)  =   2.160e-04
                       Total CO2 (mol/kg)  =   2.578e-04
                      Temperature (deg C)  =  31.00
                  Electrical balance (eq)  =   2.304e+01
 Percent error, 100*(Cat-|An|)/(Cat+|An|)  =  10.06
                               Iterations  = 201
                                  Total H  = 1.097791e+02
                                  Total O  = 5.488197e+01

----------------------------Distribution of species----------------------------

                                                   Log       Log         Log 
   Species                 Molality    Activity  Molality  Activity     Gamma

   H+                     4.175e-05   2.833e-05    -4.379    -4.548    -0.168
   OH-                    1.007e-10   3.887e-11    -9.997   -10.410    -0.413
   H2O                    5.551e+01   7.585e-02     1.744    -1.120     0.000
Br               4.938e-04
   Br-                    4.938e-04   1.649e-04    -3.306    -3.783    -0.476
C(-4)            4.158e-03
   CH4                    4.158e-03   1.000e+03    -2.381     9.203    11.584
C(4)             2.578e-04
   CaHCO3+                2.566e-04   1.362e-04    -3.591    -3.866    -0.275
   NaHCO3                 8.161e-07   1.000e+03    -6.088     5.496    11.584
   HCO3-                  3.071e-07   1.630e-07    -6.513    -6.788    -0.275
   CO2                    6.844e-08   1.000e+03    -7.165     4.419    11.584
   CaCO3                  1.826e-11   7.008e+00   -10.738     0.846    11.584
   CO3-2                  3.477e-12   2.759e-13   -11.459   -12.559    -1.100
   NaCO3-                 2.968e-12   1.000e+03   -11.528     5.888    17.416
Ca               3.312e-03
   Ca+2                   3.055e-03   1.000e+03    -2.515    15.415    17.930
   CaHCO3+                2.566e-04   1.362e-04    -3.591    -3.866    -0.275
   CaCO3                  1.826e-11   7.008e+00   -10.738     0.846    11.584
   CaOH+                  6.086e-13   1.000e+03   -12.216     5.200    17.416
Cl               1.042e+02
   Cl-                    1.042e+02   1.000e+03     2.018     3.342     1.324
H(0)             3.771e-12
   H2                     1.885e-12   7.234e-01   -11.725    -0.141    11.584
K                4.741e-04
   K+                     4.741e-04   1.000e-02    -3.324    -2.000     1.324
   KOH                    2.856e-18   1.096e-06   -17.544    -5.960    11.584
Na               1.275e+02
   Na+                    1.275e+02   1.000e+03     2.105    10.428     8.323
   NaHCO3                 8.161e-07   1.000e+03    -6.088     5.496    11.584
   NaOH                   1.519e-10   5.827e+01    -9.818     1.765    11.584
   NaCO3-                 2.968e-12   1.000e+03   -11.528     5.888    17.416
O(0)             0.000e+00
   O2                     0.000e+00   0.000e+00   -79.140   -67.556    11.584

------------------------------Saturation indices-------------------------------

	Phase               SI   log IAP   log K(304 K,   1 atm)

	Aragonite        11.23      2.86   -8.38  CaCO3
	Calcite          11.37      2.86   -8.52  CaCO3
	CH4(g)           12.11      9.20   -2.91  CH4
	CO2(g)            5.95      4.42   -1.54  CO2
	H2(g)             3.03     -0.14   -3.18  H2
	H2O(g)           -2.48     -1.12    1.36  H2O
	Halite           12.18     13.77    1.60  NaCl
	O2(g)           -64.62    -67.56   -2.93  O2


ERROR: Numerical method failed on all combinations of convergence parameters
Stopping.
