WARNING: Database file from DATABASE keyword is used; command line argument ignored.
   Input file: ex10
  Output file: ex10.out
Database file: ../database/wateq4f.dat

------------------
Reading data base.
------------------

	SOLUTION_MASTER_SPECIES
	SOLUTION_SPECIES
	PHASES
	EXCHANGE_MASTER_SPECIES
	EXCHANGE_SPECIES
	SURFACE_MASTER_SPECIES
	SURFACE_SPECIES
	RATES
	END
------------------------------------
Reading input data for simulation 1.
------------------------------------

	DATABASE ../database/wateq4f.dat
	TITLE Example 10.--Transport with equilibrium_phases, 
	   exchange, and surface reactions
	SOLUTION 1 Brine
	        pH      5.713
	        pe      4.0     O2(g)   -0.7
	        temp    25.
	        units   mol/kgw
	        Ca      .4655
	        Mg      .1609
	        Na      5.402
	        Cl      6.642           charge
	        C       .00396
	        S       .004725
	        As      .05 umol/kgw
	EQUILIBRIUM_PHASES 1
	        Dolomite        0.0     1.6
	        Calcite         0.0     0.1
	EXCHANGE 1
	        equilibrate with solution 1
	        X       1.0
	SURFACE 1
	        equilibrate solution 1
	        Hfo_w           0.07    600.    30.
	END
-----
TITLE
-----

 Example 10.--Transport with equilibrium_phases, 
   exchange, and surface reactions

-------------------------------------------
Beginning of initial solution calculations.
-------------------------------------------

Initial solution 1.	Brine

-----------------------------Solution composition------------------------------

	Elements           Molality       Moles

	As                5.000e-08   5.000e-08
	C                 3.960e-03   3.960e-03
	Ca                4.655e-01   4.655e-01
	Cl                6.642e+00   6.642e+00  Charge balance
	Mg                1.609e-01   1.609e-01
	Na                5.402e+00   5.402e+00
	S                 4.725e-03   4.725e-03

----------------------------Description of solution----------------------------

                                       pH  =   5.713    
                                       pe  =  14.962      Equilibrium with O2(g)
                        Activity of water  =   0.785
                           Ionic strength  =   7.268e+00
                       Mass of water (kg)  =   1.000e+00
                 Total alkalinity (eq/kg)  =   3.827e-03
                       Total CO2 (mol/kg)  =   3.960e-03
                         Temperature (°C)  =  25.00
                  Electrical balance (eq)  =  -1.119e-12
 Percent error, 100*(Cat-|An|)/(Cat+|An|)  =  -0.00
                               Iterations  =  12
                                  Total H  = 1.110163e+02
                                  Total O  = 5.553696e+01

----------------------------Distribution of species----------------------------

                                               Log       Log       Log    mole V
   Species          Molality    Activity  Molality  Activity     Gamma   cm³/mol

   H+              2.756e-06   1.936e-06    -5.560    -5.713    -0.153      0.00
   OH-             8.780e-09   4.056e-09    -8.056    -8.392    -0.335     (0)  
   H2O             5.551e+01   7.846e-01     1.744    -0.105     0.000     18.07
As(3)         2.542e-33
   H3AsO3          2.542e-33   1.355e-32   -32.595   -31.868     0.727     (0)  
   H2AsO3-         9.013e-37   4.953e-36   -36.045   -35.305     0.740     (0)  
   H4AsO3+         2.365e-39   1.300e-38   -38.626   -37.886     0.740     (0)  
   HAsO3-2         0.000e+00   0.000e+00   -47.252   -44.292     2.960     (0)  
   AsO3-3          0.000e+00   0.000e+00   -60.939   -54.279     6.660     (0)  
   AsS(OH)(HS)-    0.000e+00   0.000e+00  -302.062  -302.316    -0.253     (0)  
   As3S4(HS)2-     0.000e+00   0.000e+00  -899.604  -899.857    -0.253     (0)  
As(5)         5.000e-08
   H2AsO4-         4.997e-08   2.746e-07    -7.301    -6.561     0.740     (0)  
   H3AsO4          1.990e-11   1.061e-10   -10.701    -9.974     0.727     (0)  
   HAsO4-2         1.076e-11   9.810e-09   -10.968    -8.008     2.960     (0)  
   AsO4-3          2.483e-21   1.134e-14   -20.605   -13.945     6.660     (0)  
C(-4)         0.000e+00
   CH4             0.000e+00   0.000e+00  -144.672  -143.945     0.727     (0)  
C(4)          3.960e-03
   CaHCO3+         1.911e-03   1.158e-03    -2.719    -2.936    -0.218     (0)  
   MgHCO3+         1.565e-03   7.797e-04    -2.805    -3.108    -0.303     (0)  
   HCO3-           2.210e-04   1.278e-04    -3.656    -3.893    -0.238     (0)  
   CO2             1.331e-04   7.094e-04    -3.876    -3.149     0.727     (0)  
   NaHCO3          1.272e-04   6.782e-04    -3.895    -3.169     0.727     (0)  
   NaCO3-          9.404e-07   5.439e-07    -6.027    -6.264    -0.238     (0)  
   CaCO3           6.908e-07   3.682e-06    -6.161    -5.434     0.727     (0)  
   MgCO3           2.889e-07   1.540e-06    -6.539    -5.813     0.727     (0)  
   CO3-2           2.767e-08   3.096e-09    -7.558    -8.509    -0.951     (0)  
Ca            4.655e-01
   Ca+2            4.628e-01   7.100e-01    -0.335    -0.149     0.186     (0)  
   CaHCO3+         1.911e-03   1.158e-03    -2.719    -2.936    -0.218     (0)  
   CaSO4           8.295e-04   4.421e-03    -3.081    -2.354     0.727     (0)  
   CaCO3           6.908e-07   3.682e-06    -6.161    -5.434     0.727     (0)  
   CaOH+           7.883e-08   4.774e-08    -7.103    -7.321    -0.218     (0)  
   CaHSO4+         9.128e-09   5.016e-08    -8.040    -7.300     0.740     (0)  
Cl            6.642e+00
   Cl-             6.642e+00   3.944e+00     0.822     0.596    -0.226     (0)  
H(0)          0.000e+00
   H2              0.000e+00   0.000e+00   -45.226   -44.499     0.727     (0)  
Mg            1.609e-01
   Mg+2            1.586e-01   5.212e-01    -0.800    -0.283     0.517     (0)  
   MgHCO3+         1.565e-03   7.797e-04    -2.805    -3.108    -0.303     (0)  
   MgSO4           7.155e-04   3.814e-03    -3.145    -2.419     0.727     (0)  
   MgOH+           1.225e-06   7.668e-07    -5.912    -6.115    -0.204     (0)  
   MgCO3           2.889e-07   1.540e-06    -6.539    -5.813     0.727     (0)  
Na            5.402e+00
   Na+             5.399e+00   9.434e+00     0.732     0.975     0.242     (0)  
   NaSO4-          2.552e-03   1.476e-03    -2.593    -2.831    -0.238     (0)  
   NaHCO3          1.272e-04   6.782e-04    -3.895    -3.169     0.727     (0)  
   NaCO3-          9.404e-07   5.439e-07    -6.027    -6.264    -0.238     (0)  
O(0)          9.592e-05
   O2              4.796e-05   2.556e-04    -4.319    -3.592     0.727     (0)  
S(-2)         0.000e+00
   H2S             0.000e+00   0.000e+00  -140.990  -140.263     0.727     (0)  
   HS-             0.000e+00   0.000e+00  -141.156  -141.492    -0.335     (0)  
   S5-2            0.000e+00   0.000e+00  -144.901  -145.374    -0.473     (0)  
   S4-2            0.000e+00   0.000e+00  -145.050  -145.608    -0.558     (0)  
   S6-2            0.000e+00   0.000e+00  -145.249  -145.660    -0.410     (0)  
   S-2             0.000e+00   0.000e+00  -147.683  -148.697    -1.013     (0)  
   S3-2            0.000e+00   0.000e+00  -148.380  -149.061    -0.680     (0)  
   S2-2            0.000e+00   0.000e+00  -149.493  -150.307    -0.814     (0)  
   AsS(OH)(HS)-    0.000e+00   0.000e+00  -302.062  -302.316    -0.253     (0)  
   As3S4(HS)2-     0.000e+00   0.000e+00  -899.604  -899.857    -0.253     (0)  
S(6)          4.725e-03
   NaSO4-          2.552e-03   1.476e-03    -2.593    -2.831    -0.238     (0)  
   CaSO4           8.295e-04   4.421e-03    -3.081    -2.354     0.727     (0)  
   MgSO4           7.155e-04   3.814e-03    -3.145    -2.419     0.727     (0)  
   SO4-2           6.285e-04   3.121e-05    -3.202    -4.506    -1.304     (0)  
   HSO4-           1.109e-08   5.876e-09    -7.955    -8.231    -0.276     (0)  
   CaHSO4+         9.128e-09   5.016e-08    -8.040    -7.300     0.740     (0)  

------------------------------Saturation indices-------------------------------

  Phase               SI** log IAP   log K(298 K,   1 atm)

  Anhydrite        -0.29     -4.65   -4.36  CaSO4
  Aragonite        -0.32     -8.66   -8.34  CaCO3
  Arsenolite      -62.04    -63.42   -1.38  As2O3
  Artinite         -7.78      1.82    9.60  MgCO3:Mg(OH)2:3H2O
  As2O5(cr)       -27.86    -19.63    8.23  As2O5
  As2S3(am)      -459.82   -504.72  -44.90  As2S3
  As_native       -81.04    -93.58  -12.53  As
  Brucite          -5.91     10.93   16.84  Mg(OH)2
  Ca3(AsO4)2:4w    -9.85    -28.76  -18.91  Ca3(AsO4)2:4H2O
  Calcite          -0.18     -8.66   -8.48  CaCO3
  CH4(g)         -141.08   -143.94   -2.86  CH4
  Claudetite      -62.08    -63.42   -1.34  As2O3
  CO2(g)           -1.68     -3.15   -1.47  CO2
  Dolomite         -0.36    -17.45  -17.09  CaMg(CO3)2
  Dolomite(d)      -0.91    -17.45  -16.54  CaMg(CO3)2
  Epsomite         -3.39     -5.53   -2.14  MgSO4:7H2O
  Gypsum           -0.28     -4.87   -4.58  CaSO4:2H2O
  H2(g)           -41.35    -44.50   -3.15  H2
  H2O(g)           -1.62     -0.11    1.51  H2O
  H2S(g)         -139.27   -140.26   -1.00  H2S
  Halite           -0.01      1.57    1.58  NaCl
  Huntite          -5.07    -35.03  -29.97  CaMg3(CO3)4
  Hydromagnesite  -15.90    -24.66   -8.76  Mg5(CO3)4(OH)2:4H2O
  Magnesite        -0.76     -8.79   -8.03  MgCO3
  Mirabilite       -2.50     -3.61   -1.11  Na2SO4:10H2O
  Nahcolite        -2.37     -2.92   -0.55  NaHCO3
  Natron           -6.30     -7.61   -1.31  Na2CO3:10H2O
  Nesquehonite     -3.49     -9.11   -5.62  MgCO3:3H2O
  O2(g)            -0.70     -3.59   -2.89  O2
  Orpiment       -458.42   -504.72  -46.30  As2S3
  Portlandite     -11.73     11.07   22.80  Ca(OH)2
  Realgar        -179.49   -199.43  -19.94  AsS
  Sulfur         -103.75   -118.77  -15.03  S
  Thenardite       -2.38     -2.56   -0.18  Na2SO4
  Thermonatrite    -6.79     -6.67    0.12  Na2CO3:H2O
  Trona            -8.89     -9.69   -0.80  NaHCO3:Na2CO3:2H2O

**For a gas, SI = log10(fugacity). Fugacity = pressure * phi / 1 atm.
  For ideal gases, phi = 1.

-------------------------------------------------------
Beginning of initial exchange-composition calculations.
-------------------------------------------------------

Exchange 1.	

X                1.000e+00 mol

	                               Equiv-    Equivalent      Log 
	Species             Moles      alents      Fraction     Gamma

	NaX               9.355e-01   9.355e-01   9.355e-01     0.000
	CaX2              2.203e-02   4.405e-02   4.405e-02     0.000
	MgX2              1.020e-02   2.041e-02   2.041e-02     0.000
	HX                1.920e-06   1.920e-06   1.920e-06     0.000

------------------------------------------------------
Beginning of initial surface-composition calculations.
------------------------------------------------------

Surface 1.	

Diffuse Double Layer Surface-Complexation Model

Hfo           
	  5.775e-02  Surface charge, eq
	  3.096e-01  sigma, C/m²
	  4.451e-02  psi, V
	 -1.733e+00  -F*psi/RT
	  1.768e-01  exp(-F*psi/RT)
	  6.000e+02  specific area, m²/g
	  1.800e+04  m² for   3.000e+01 g


Hfo_w         
	  7.000e-02  moles
	                                   Mole                     Log
	Species               Moles    Fraction    Molality    Molality

	Hfo_wOH2+         5.081e-02       0.726   5.081e-02      -1.294
	Hfo_wOMg+         9.098e-03       0.130   9.098e-03      -2.041
	Hfo_wOH           7.611e-03       0.109   7.611e-03      -2.119
	Hfo_wHAsO4-       7.550e-04       0.011   7.550e-04      -3.122
	Hfo_wOCa+         6.969e-04       0.010   6.969e-04      -3.157
	Hfo_wOHAsO4-3     5.937e-04       0.008   5.937e-04      -3.226
	Hfo_wSO4-         1.998e-04       0.003   1.998e-04      -3.699
	Hfo_wH2AsO4       1.631e-04       0.002   1.631e-04      -3.788
	Hfo_wOHSO4-2      4.685e-05       0.001   4.685e-05      -4.329
	Hfo_wO-           2.612e-05       0.000   2.612e-05      -4.583

-----------------------------------------
Beginning of batch-reaction calculations.
-----------------------------------------

Reaction step 1.

Using solution 1.	Brine
Using exchange 1.	Exchange assemblage after simulation 1.
Using surface 1.	
Using pure phase assemblage 1.	

-------------------------------Phase assemblage--------------------------------

                                                      Moles in assemblage
Phase               SI  log IAP  log K(T, P)   Initial       Final       Delta

Calcite           0.00    -8.48     -8.48    1.000e-01   1.031e-01   3.083e-03
Dolomite          0.00   -17.09    -17.09    1.600e+00   1.598e+00  -2.420e-03

------------------------------Surface composition------------------------------

Diffuse Double Layer Surface-Complexation Model

Hfo           
	  5.752e-02  Surface charge, eq
	  3.083e-01  sigma, C/m²
	  4.437e-02  psi, V
	 -1.727e+00  -F*psi/RT
	  1.778e-01  exp(-F*psi/RT)
	  6.000e+02  specific area, m²/g
	  1.800e+04  m² for   3.000e+01 g


Hfo_w         
	  7.000e-02  moles
	                                   Mole                     Log
	Species               Moles    Fraction    Molality    Molality

	Hfo_wOH2+         4.987e-02       0.712   4.987e-02      -1.302
	Hfo_wOMg+         9.832e-03       0.140   9.832e-03      -2.007
	Hfo_wOH           7.773e-03       0.111   7.773e-03      -2.109
	Hfo_wOCa+         7.465e-04       0.011   7.465e-04      -3.127
	Hfo_wHAsO4-       7.342e-04       0.010   7.342e-04      -3.134
	Hfo_wOHAsO4-3     6.251e-04       0.009   6.251e-04      -3.204
	Hfo_wSO4-         1.941e-04       0.003   1.941e-04      -3.712
	Hfo_wH2AsO4       1.524e-04       0.002   1.524e-04      -3.817
	Hfo_wOHSO4-2      4.736e-05       0.001   4.736e-05      -4.325
	Hfo_wO-           2.776e-05       0.000   2.776e-05      -4.557
	Hfo_wH2AsO3       3.157e-29       0.000   3.157e-29     -28.501

-----------------------------Exchange composition------------------------------

X                1.000e+00 mol

	                               Equiv-    Equivalent      Log 
	Species             Moles      alents      Fraction     Gamma

	NaX               9.356e-01   9.356e-01   9.356e-01     0.000
	CaX2              2.196e-02   4.391e-02   4.391e-02     0.000
	MgX2              1.026e-02   2.052e-02   2.052e-02     0.000
	HX                1.835e-06   1.835e-06   1.835e-06     0.000

-----------------------------Solution composition------------------------------

	Elements           Molality       Moles

	As                4.787e-08   4.787e-08
	C                 5.717e-03   5.717e-03
	Ca                4.649e-01   4.649e-01
	Cl                6.642e+00   6.642e+00
	Mg                1.625e-01   1.625e-01
	Na                5.402e+00   5.402e+00
	S                 4.730e-03   4.730e-03

----------------------------Description of solution----------------------------

                                       pH  =   5.733      Charge balance
                                       pe  =  14.942      Adjusted to redox equilibrium
                        Activity of water  =   0.785
                           Ionic strength  =   7.267e+00
                       Mass of water (kg)  =   1.000e+00
                 Total alkalinity (eq/kg)  =   5.535e-03
                       Total CO2 (mol/kg)  =   5.717e-03
                         Temperature (°C)  =  25.00
                  Electrical balance (eq)  =   2.295e-04
 Percent error, 100*(Cat-|An|)/(Cat+|An|)  =   0.00
                               Iterations  =   3
                                  Total H  = 1.110180e+02
                                  Total O  = 5.554222e+01

----------------------------Distribution of species----------------------------

                                               Log       Log       Log    mole V
   Species          Molality    Activity  Molality  Activity     Gamma   cm³/mol

   H+              2.634e-06   1.851e-06    -5.579    -5.733    -0.153      0.00
   OH-             9.188e-09   4.244e-09    -8.037    -8.372    -0.335     (0)  
   H2O             5.551e+01   7.846e-01     1.744    -0.105     0.000     18.07
As(3)         2.326e-33
   H3AsO3          2.326e-33   1.240e-32   -32.633   -31.907     0.727     (0)  
   H2AsO3-         8.631e-37   4.742e-36   -36.064   -35.324     0.740     (0)  
   H4AsO3+         2.068e-39   1.136e-38   -38.684   -37.944     0.740     (0)  
   HAsO3-2         0.000e+00   0.000e+00   -47.251   -44.291     2.960     (0)  
   AsO3-3          0.000e+00   0.000e+00   -60.918   -54.259     6.659     (0)  
   AsS(OH)(HS)-    0.000e+00   0.000e+00  -302.159  -302.413    -0.253     (0)  
   As3S4(HS)2-     0.000e+00   0.000e+00  -899.934  -900.187    -0.253     (0)  
As(5)         4.787e-08
   H2AsO4-         4.785e-08   2.629e-07    -7.320    -6.580     0.740     (0)  
   H3AsO4          1.821e-11   9.706e-11   -10.740   -10.013     0.727     (0)  
   HAsO4-2         1.078e-11   9.828e-09   -10.967    -8.008     2.960     (0)  
   AsO4-3          2.606e-21   1.189e-14   -20.584   -13.925     6.659     (0)  
C(-4)         0.000e+00
   CH4             0.000e+00   0.000e+00  -144.531  -143.805     0.727     (0)  
C(4)          5.717e-03
   CaHCO3+         2.753e-03   1.667e-03    -2.560    -2.778    -0.218     (0)  
   MgHCO3+         2.275e-03   1.133e-03    -2.643    -2.946    -0.303     (0)  
   HCO3-           3.194e-04   1.847e-04    -3.496    -3.733    -0.238     (0)  
   NaHCO3          1.839e-04   9.800e-04    -3.736    -3.009     0.727     (0)  
   CO2             1.838e-04   9.796e-04    -3.736    -3.009     0.727     (0)  
   NaCO3-          1.422e-06   8.223e-07    -5.847    -6.085    -0.238     (0)  
   CaCO3           1.041e-06   5.550e-06    -5.982    -5.256     0.727     (0)  
   MgCO3           4.393e-07   2.341e-06    -6.357    -5.631     0.727     (0)  
   CO3-2           4.184e-08   4.681e-09    -7.378    -8.330    -0.951     (0)  
Ca            4.649e-01
   Ca+2            4.613e-01   7.076e-01    -0.336    -0.150     0.186     (0)  
   CaHCO3+         2.753e-03   1.667e-03    -2.560    -2.778    -0.218     (0)  
   CaSO4           8.275e-04   4.410e-03    -3.082    -2.356     0.727     (0)  
   CaCO3           1.041e-06   5.550e-06    -5.982    -5.256     0.727     (0)  
   CaOH+           8.221e-08   4.979e-08    -7.085    -7.303    -0.218     (0)  
   CaHSO4+         8.702e-09   4.781e-08    -8.060    -7.320     0.740     (0)  
Cl            6.642e+00
   Cl-             6.642e+00   3.943e+00     0.822     0.596    -0.226     (0)  
H(0)          0.000e+00
   H2              0.000e+00   0.000e+00   -45.226   -44.499     0.727     (0)  
Mg            1.625e-01
   Mg+2            1.595e-01   5.241e-01    -0.797    -0.281     0.517     (0)  
   MgHCO3+         2.275e-03   1.133e-03    -2.643    -2.946    -0.303     (0)  
   MgSO4           7.201e-04   3.838e-03    -3.143    -2.416     0.727     (0)  
   MgOH+           1.289e-06   8.068e-07    -5.890    -6.093    -0.204     (0)  
   MgCO3           4.393e-07   2.341e-06    -6.357    -5.631     0.727     (0)  
Na            5.402e+00
   Na+             5.399e+00   9.433e+00     0.732     0.975     0.242     (0)  
   NaSO4-          2.554e-03   1.477e-03    -2.593    -2.831    -0.238     (0)  
   NaHCO3          1.839e-04   9.800e-04    -3.736    -3.009     0.727     (0)  
   NaCO3-          1.422e-06   8.223e-07    -5.847    -6.085    -0.238     (0)  
O(0)          9.592e-05
   O2              4.796e-05   2.556e-04    -4.319    -3.592     0.727     (0)  
S(-2)         0.000e+00
   H2S             0.000e+00   0.000e+00  -141.029  -140.302     0.727     (0)  
   HS-             0.000e+00   0.000e+00  -141.176  -141.511    -0.335     (0)  
   S5-2            0.000e+00   0.000e+00  -144.900  -145.373    -0.473     (0)  
   S4-2            0.000e+00   0.000e+00  -145.049  -145.607    -0.558     (0)  
   S6-2            0.000e+00   0.000e+00  -145.249  -145.659    -0.410     (0)  
   S-2             0.000e+00   0.000e+00  -147.683  -148.696    -1.013     (0)  
   S3-2            0.000e+00   0.000e+00  -148.380  -149.060    -0.680     (0)  
   S2-2            0.000e+00   0.000e+00  -149.492  -150.306    -0.814     (0)  
   AsS(OH)(HS)-    0.000e+00   0.000e+00  -302.159  -302.413    -0.253     (0)  
   As3S4(HS)2-     0.000e+00   0.000e+00  -899.934  -900.187    -0.253     (0)  
S(6)          4.730e-03
   NaSO4-          2.554e-03   1.477e-03    -2.593    -2.831    -0.238     (0)  
   CaSO4           8.275e-04   4.410e-03    -3.082    -2.356     0.727     (0)  
   MgSO4           7.201e-04   3.838e-03    -3.143    -2.416     0.727     (0)  
   SO4-2           6.290e-04   3.124e-05    -3.201    -4.505    -1.304     (0)  
   HSO4-           1.061e-08   5.620e-09    -7.974    -8.250    -0.276     (0)  
   CaHSO4+         8.702e-09   4.781e-08    -8.060    -7.320     0.740     (0)  

------------------------------Saturation indices-------------------------------

  Phase               SI** log IAP   log K(298 K,   1 atm)

  Anhydrite        -0.29     -4.66   -4.36  CaSO4
  Aragonite        -0.14     -8.48   -8.34  CaCO3
  Arsenolite      -62.12    -63.50   -1.38  As2O3
  Artinite         -7.55      2.05    9.60  MgCO3:Mg(OH)2:3H2O
  As2O5(cr)       -27.94    -19.71    8.23  As2O5
  As2S3(am)      -460.01   -504.91  -44.90  As2S3
  As_native       -81.08    -93.61  -12.53  As
  Brucite          -5.87     10.97   16.84  Mg(OH)2
  Ca3(AsO4)2:4w    -9.82    -28.72  -18.91  Ca3(AsO4)2:4H2O
  Calcite           0.00     -8.48   -8.48  CaCO3
  CH4(g)         -140.94   -143.80   -2.86  CH4
  Claudetite      -62.16    -63.50   -1.34  As2O3
  CO2(g)           -1.54     -3.01   -1.47  CO2
  Dolomite          0.00    -17.09  -17.09  CaMg(CO3)2
  Dolomite(d)      -0.55    -17.09  -16.54  CaMg(CO3)2
  Epsomite         -3.38     -5.52   -2.14  MgSO4:7H2O
  Gypsum           -0.29     -4.87   -4.58  CaSO4:2H2O
  H2(g)           -41.35    -44.50   -3.15  H2
  H2O(g)           -1.62     -0.11    1.51  H2O
  H2S(g)         -139.30   -140.30   -1.00  H2S
  Halite           -0.01      1.57    1.58  NaCl
  Huntite          -4.34    -34.31  -29.97  CaMg3(CO3)4
  Hydromagnesite  -15.13    -23.89   -8.76  Mg5(CO3)4(OH)2:4H2O
  Magnesite        -0.58     -8.61   -8.03  MgCO3
  Mirabilite       -2.50     -3.61   -1.11  Na2SO4:10H2O
  Nahcolite        -2.21     -2.76   -0.55  NaHCO3
  Natron           -6.12     -7.43   -1.31  Na2CO3:10H2O
  Nesquehonite     -3.31     -8.93   -5.62  MgCO3:3H2O
  O2(g)            -0.70     -3.59   -2.89  O2
  Orpiment       -458.61   -504.91  -46.30  As2S3
  Portlandite     -11.70     11.10   22.80  Ca(OH)2
  Realgar        -179.56   -199.51  -19.94  AsS
  Sulfur         -103.79   -118.81  -15.03  S
  Thenardite       -2.38     -2.56   -0.18  Na2SO4
  Thermonatrite    -6.61     -6.49    0.12  Na2CO3:H2O
  Trona            -8.55     -9.35   -0.80  NaHCO3:Na2CO3:2H2O

**For a gas, SI = log10(fugacity). Fugacity = pressure * phi / 1 atm.
  For ideal gases, phi = 1.

------------------
End of simulation.
------------------

------------------------------------
Reading input data for simulation 2.
------------------------------------

	SOLUTION 0 20 x precipitation
	        pH      4.6
	        pe      4.0     O2(g)   -0.7
	        temp    25.
	        units   mmol/kgw
	        Ca      .191625
	        Mg      .035797
	        Na      .122668
	        Cl      .133704
	        C       .01096
	        S       .235153         charge
	EQUILIBRIUM_PHASES 0
	        Dolomite        0.0     1.6
	        Calcite         0.0     0.1
	        CO2(g)          -1.5    10.
	SAVE solution 0
	END
-------------------------------------------
Beginning of initial solution calculations.
-------------------------------------------

Initial solution 0.	20 x precipitation

-----------------------------Solution composition------------------------------

	Elements           Molality       Moles

	C                 1.096e-05   1.096e-05
	Ca                1.916e-04   1.916e-04
	Cl                1.337e-04   1.337e-04
	Mg                3.580e-05   3.580e-05
	Na                1.227e-04   1.227e-04
	S                 2.351e-04   2.351e-04  Charge balance

----------------------------Description of solution----------------------------

                                       pH  =   4.600    
                                       pe  =  16.022      Equilibrium with O2(g)
                        Activity of water  =   1.000
                           Ionic strength  =   1.035e-03
                       Mass of water (kg)  =   1.000e+00
                 Total alkalinity (eq/kg)  =  -2.630e-05
                       Total CO2 (mol/kg)  =   1.096e-05
                         Temperature (°C)  =  25.00
                  Electrical balance (eq)  =   8.201e-16
 Percent error, 100*(Cat-|An|)/(Cat+|An|)  =   0.00
                               Iterations  =   9
                                  Total H  = 1.110125e+02
                                  Total O  = 5.550769e+01

----------------------------Distribution of species----------------------------

                                               Log       Log       Log    mole V
   Species          Molality    Activity  Molality  Activity     Gamma   cm³/mol

   H+              2.600e-05   2.512e-05    -4.585    -4.600    -0.015      0.00
   OH-             4.133e-10   3.985e-10    -9.384    -9.400    -0.016     (0)  
   H2O             5.551e+01   1.000e+00     1.744    -0.000     0.000     18.07
C(-4)         0.000e+00
   CH4             0.000e+00   0.000e+00  -145.553  -145.553     0.000     (0)  
C(4)          1.096e-05
   CO2             1.076e-05   1.076e-05    -4.968    -4.968     0.000     (0)  
   HCO3-           1.975e-07   1.906e-07    -6.704    -6.720    -0.016     (0)  
   CaHCO3+         4.046e-10   3.905e-10    -9.393    -9.408    -0.015     (0)  
   MgHCO3+         6.904e-11   6.658e-11   -10.161   -10.177    -0.016     (0)  
   NaHCO3          1.267e-11   1.267e-11   -10.897   -10.897     0.000     (0)  
   CO3-2           4.105e-13   3.559e-13   -12.387   -12.449    -0.062     (0)  
   CaCO3           9.573e-14   9.575e-14   -13.019   -13.019     0.000     (0)  
   MgCO3           1.014e-14   1.014e-14   -13.994   -13.994     0.000     (0)  
   NaCO3-          8.118e-16   7.833e-16   -15.091   -15.106    -0.016     (0)  
Ca            1.916e-04
   Ca+2            1.853e-04   1.606e-04    -3.732    -3.794    -0.062     (0)  
   CaSO4           6.294e-06   6.295e-06    -5.201    -5.201     0.000     (0)  
   CaHSO4+         9.605e-10   9.264e-10    -9.017    -9.033    -0.016     (0)  
   CaHCO3+         4.046e-10   3.905e-10    -9.393    -9.408    -0.015     (0)  
   CaOH+           1.100e-12   1.061e-12   -11.959   -11.974    -0.015     (0)  
   CaCO3           9.573e-14   9.575e-14   -13.019   -13.019     0.000     (0)  
Cl            1.337e-04
   Cl-             1.337e-04   1.289e-04    -3.874    -3.890    -0.016     (0)  
H(0)          0.000e+00
   H2              0.000e+00   0.000e+00   -44.394   -44.394     0.000     (0)  
Mg            3.580e-05
   Mg+2            3.442e-05   2.986e-05    -4.463    -4.525    -0.062     (0)  
   MgSO4           1.374e-06   1.375e-06    -5.862    -5.862     0.000     (0)  
   MgHCO3+         6.904e-11   6.658e-11   -10.161   -10.177    -0.016     (0)  
   MgOH+           4.471e-12   4.315e-12   -11.350   -11.365    -0.015     (0)  
   MgCO3           1.014e-14   1.014e-14   -13.994   -13.994     0.000     (0)  
Na            1.227e-04
   Na+             1.225e-04   1.182e-04    -3.912    -3.927    -0.016     (0)  
   NaSO4-          1.206e-07   1.164e-07    -6.919    -6.934    -0.016     (0)  
   NaHCO3          1.267e-11   1.267e-11   -10.897   -10.897     0.000     (0)  
   NaCO3-          8.118e-16   7.833e-16   -15.091   -15.106    -0.016     (0)  
O(0)          5.112e-04
   O2              2.556e-04   2.556e-04    -3.592    -3.592     0.000     (0)  
S(-2)         0.000e+00
   H2S             0.000e+00   0.000e+00  -137.238  -137.238     0.000     (0)  
   HS-             0.000e+00   0.000e+00  -139.564  -139.580    -0.016     (0)  
   S5-2            0.000e+00   0.000e+00  -144.517  -144.575    -0.058     (0)  
   S4-2            0.000e+00   0.000e+00  -144.749  -144.809    -0.059     (0)  
   S6-2            0.000e+00   0.000e+00  -144.804  -144.861    -0.057     (0)  
   S-2             0.000e+00   0.000e+00  -147.835  -147.898    -0.062     (0)  
   S3-2            0.000e+00   0.000e+00  -148.201  -148.262    -0.061     (0)  
   S2-2            0.000e+00   0.000e+00  -149.446  -149.508    -0.061     (0)  
S(6)          2.351e-04
   SO4-2           2.268e-04   1.964e-04    -3.644    -3.707    -0.062     (0)  
   CaSO4           6.294e-06   6.295e-06    -5.201    -5.201     0.000     (0)  
   MgSO4           1.374e-06   1.375e-06    -5.862    -5.862     0.000     (0)  
   HSO4-           4.973e-07   4.797e-07    -6.303    -6.319    -0.016     (0)  
   NaSO4-          1.206e-07   1.164e-07    -6.919    -6.934    -0.016     (0)  
   CaHSO4+         9.605e-10   9.264e-10    -9.017    -9.033    -0.016     (0)  

------------------------------Saturation indices-------------------------------

  Phase               SI** log IAP   log K(298 K,   1 atm)

  Anhydrite        -3.14     -7.50   -4.36  CaSO4
  Aragonite        -7.91    -16.24   -8.34  CaCO3
  Artinite        -21.90    -12.30    9.60  MgCO3:Mg(OH)2:3H2O
  Brucite         -12.16      4.68   16.84  Mg(OH)2
  Calcite          -7.76    -16.24   -8.48  CaCO3
  CH4(g)         -142.69   -145.55   -2.86  CH4
  CO2(g)           -3.50     -4.97   -1.47  CO2
  Dolomite        -16.13    -33.22  -17.09  CaMg(CO3)2
  Dolomite(d)     -16.68    -33.22  -16.54  CaMg(CO3)2
  Epsomite         -6.09     -8.23   -2.14  MgSO4:7H2O
  Gypsum           -2.92     -7.50   -4.58  CaSO4:2H2O
  H2(g)           -41.24    -44.39   -3.15  H2
  H2O(g)           -1.51     -0.00    1.51  H2O
  H2S(g)         -136.24   -137.24   -1.00  H2S
  Halite           -9.40     -7.82    1.58  NaCl
  Huntite         -37.20    -67.16  -29.97  CaMg3(CO3)4
  Hydromagnesite  -54.46    -63.22   -8.76  Mg5(CO3)4(OH)2:4H2O
  Magnesite        -8.94    -16.97   -8.03  MgCO3
  Mirabilite      -10.45    -11.56   -1.11  Na2SO4:10H2O
  Nahcolite       -10.10    -10.65   -0.55  NaHCO3
  Natron          -18.99    -20.30   -1.31  Na2CO3:10H2O
  Nesquehonite    -11.35    -16.97   -5.62  MgCO3:3H2O
  O2(g)            -0.70     -3.59   -2.89  O2
  Portlandite     -17.39      5.41   22.80  Ca(OH)2
  Sulfur         -100.83   -115.85  -15.03  S
  Thenardite      -11.38    -11.56   -0.18  Na2SO4
  Thermonatrite   -20.43    -20.30    0.12  Na2CO3:H2O
  Trona           -30.16    -30.95   -0.80  NaHCO3:Na2CO3:2H2O

**For a gas, SI = log10(fugacity). Fugacity = pressure * phi / 1 atm.
  For ideal gases, phi = 1.

-----------------------------------------
Beginning of batch-reaction calculations.
-----------------------------------------

Reaction step 1.

Using solution 0.	20 x precipitation
Using pure phase assemblage 0.	

-------------------------------Phase assemblage--------------------------------

                                                      Moles in assemblage
Phase               SI  log IAP  log K(T, P)   Initial       Final       Delta

CO2(g)           -1.50    -2.97     -1.47    1.000e+01   9.996e+00  -4.067e-03
Calcite           0.00    -8.48     -8.48    1.000e-01   9.966e-02  -3.440e-04
Dolomite          0.00   -17.09    -17.09    1.600e+00   1.599e+00  -1.349e-03

-----------------------------Solution composition------------------------------

	Elements           Molality       Moles

	C                 7.121e-03   7.120e-03
	Ca                1.885e-03   1.885e-03
	Cl                1.337e-04   1.337e-04
	Mg                1.385e-03   1.385e-03
	Na                1.227e-04   1.227e-04
	S                 2.351e-04   2.351e-04

----------------------------Description of solution----------------------------

                                       pH  =   7.047      Charge balance
                                       pe  =  13.575      Adjusted to redox equilibrium
                        Activity of water  =   1.000
                           Ionic strength  =   9.632e-03
                       Mass of water (kg)  =   9.999e-01
                 Total alkalinity (eq/kg)  =   6.058e-03
                       Total CO2 (mol/kg)  =   7.121e-03
                         Temperature (°C)  =  25.00
                  Electrical balance (eq)  =   2.195e-15
 Percent error, 100*(Cat-|An|)/(Cat+|An|)  =   0.00
                               Iterations  =   9
                                  Total H  = 1.110125e+02
                                  Total O  = 5.552495e+01

----------------------------Distribution of species----------------------------

                                               Log       Log       Log    mole V
   Species          Molality    Activity  Molality  Activity     Gamma   cm³/mol

   OH-             1.237e-07   1.115e-07    -6.908    -6.953    -0.045     (0)  
   H+              9.814e-08   8.976e-08    -7.008    -7.047    -0.039      0.00
   H2O             5.551e+01   9.998e-01     1.744    -0.000     0.000     18.07
C(-4)         0.000e+00
   CH4             0.000e+00   0.000e+00  -143.556  -143.555     0.001     (0)  
C(4)          7.121e-03
   HCO3-           5.884e-03   5.334e-03    -2.230    -2.273    -0.043     (0)  
   CO2             1.074e-03   1.077e-03    -2.969    -2.968     0.001     (0)  
   CaHCO3+         8.906e-05   8.086e-05    -4.050    -4.092    -0.042     (0)  
   MgHCO3+         6.086e-05   5.495e-05    -4.216    -4.260    -0.044     (0)  
   CaCO3           5.537e-06   5.550e-06    -5.257    -5.256     0.001     (0)  
   CO3-2           4.127e-06   2.787e-06    -5.384    -5.555    -0.171     (0)  
   MgCO3           2.336e-06   2.341e-06    -5.631    -5.631     0.001     (0)  
   NaHCO3          3.310e-07   3.317e-07    -6.480    -6.479     0.001     (0)  
   NaCO3-          6.331e-09   5.739e-09    -8.199    -8.241    -0.043     (0)  
Ca            1.885e-03
   Ca+2            1.761e-03   1.189e-03    -2.754    -2.925    -0.171     (0)  
   CaHCO3+         8.906e-05   8.086e-05    -4.050    -4.092    -0.042     (0)  
   CaSO4           2.879e-05   2.886e-05    -4.541    -4.540     0.001     (0)  
   CaCO3           5.537e-06   5.550e-06    -5.257    -5.256     0.001     (0)  
   CaOH+           2.420e-09   2.197e-09    -8.616    -8.658    -0.042     (0)  
   CaHSO4+         1.680e-11   1.517e-11   -10.775   -10.819    -0.044     (0)  
Cl            1.337e-04
   Cl-             1.337e-04   1.206e-04    -3.874    -3.919    -0.045     (0)  
H(0)          0.000e+00
   H2              0.000e+00   0.000e+00   -44.395   -44.394     0.001     (0)  
Mg            1.385e-03
   Mg+2            1.297e-03   8.804e-04    -2.887    -3.055    -0.168     (0)  
   MgHCO3+         6.086e-05   5.495e-05    -4.216    -4.260    -0.044     (0)  
   MgSO4           2.506e-05   2.511e-05    -4.601    -4.600     0.001     (0)  
   MgCO3           2.336e-06   2.341e-06    -5.631    -5.631     0.001     (0)  
   MgOH+           3.917e-08   3.561e-08    -7.407    -7.448    -0.041     (0)  
Na            1.227e-04
   Na+             1.223e-04   1.106e-04    -3.913    -3.956    -0.044     (0)  
   NaHCO3          3.310e-07   3.317e-07    -6.480    -6.479     0.001     (0)  
   NaSO4-          7.439e-08   6.743e-08    -7.128    -7.171    -0.043     (0)  
   NaCO3-          6.331e-09   5.739e-09    -8.199    -8.241    -0.043     (0)  
O(0)          5.112e-04
   O2              2.556e-04   2.562e-04    -3.592    -3.591     0.001     (0)  
S(-2)         0.000e+00
   HS-             0.000e+00   0.000e+00  -142.191  -142.236    -0.045     (0)  
   H2S             0.000e+00   0.000e+00  -142.343  -142.342     0.001     (0)  
   S5-2            0.000e+00   0.000e+00  -144.640  -144.785    -0.144     (0)  
   S4-2            0.000e+00   0.000e+00  -144.867  -145.019    -0.151     (0)  
   S6-2            0.000e+00   0.000e+00  -144.933  -145.071    -0.138     (0)  
   S-2             0.000e+00   0.000e+00  -147.935  -148.108    -0.172     (0)  
   S3-2            0.000e+00   0.000e+00  -148.312  -148.472    -0.159     (0)  
   S2-2            0.000e+00   0.000e+00  -149.552  -149.718    -0.166     (0)  
S(6)          2.351e-04
   SO4-2           1.811e-04   1.217e-04    -3.742    -3.915    -0.173     (0)  
   CaSO4           2.879e-05   2.886e-05    -4.541    -4.540     0.001     (0)  
   MgSO4           2.506e-05   2.511e-05    -4.601    -4.600     0.001     (0)  
   NaSO4-          7.439e-08   6.743e-08    -7.128    -7.171    -0.043     (0)  
   HSO4-           1.174e-09   1.062e-09    -8.930    -8.974    -0.044     (0)  
   CaHSO4+         1.680e-11   1.517e-11   -10.775   -10.819    -0.044     (0)  

------------------------------Saturation indices-------------------------------

  Phase               SI** log IAP   log K(298 K,   1 atm)

  Anhydrite        -2.48     -6.84   -4.36  CaSO4
  Aragonite        -0.14     -8.48   -8.34  CaCO3
  Artinite         -7.17      2.43    9.60  MgCO3:Mg(OH)2:3H2O
  Brucite          -5.80     11.04   16.84  Mg(OH)2
  Calcite           0.00     -8.48   -8.48  CaCO3
  CH4(g)         -140.69   -143.55   -2.86  CH4
  CO2(g)           -1.50     -2.97   -1.47  CO2
  Dolomite          0.00    -17.09  -17.09  CaMg(CO3)2
  Dolomite(d)      -0.55    -17.09  -16.54  CaMg(CO3)2
  Epsomite         -4.83     -6.97   -2.14  MgSO4:7H2O
  Gypsum           -2.26     -6.84   -4.58  CaSO4:2H2O
  H2(g)           -41.24    -44.39   -3.15  H2
  H2O(g)           -1.51     -0.00    1.51  H2O
  H2S(g)         -141.34   -142.34   -1.00  H2S
  Halite           -9.46     -7.87    1.58  NaCl
  Huntite          -4.34    -34.31  -29.97  CaMg3(CO3)4
  Hydromagnesite  -14.64    -23.40   -8.76  Mg5(CO3)4(OH)2:4H2O
  Magnesite        -0.58     -8.61   -8.03  MgCO3
  Mirabilite      -10.71    -11.83   -1.11  Na2SO4:10H2O
  Nahcolite        -5.68     -6.23   -0.55  NaHCO3
  Natron          -12.16    -13.47   -1.31  Na2CO3:10H2O
  Nesquehonite     -2.99     -8.61   -5.62  MgCO3:3H2O
  O2(g)            -0.70     -3.59   -2.89  O2
  Portlandite     -11.63     11.17   22.80  Ca(OH)2
  Sulfur         -105.93   -120.96  -15.03  S
  Thenardite      -11.65    -11.83   -0.18  Na2SO4
  Thermonatrite   -13.59    -13.47    0.12  Na2CO3:H2O
  Trona           -18.90    -19.70   -0.80  NaHCO3:Na2CO3:2H2O

**For a gas, SI = log10(fugacity). Fugacity = pressure * phi / 1 atm.
  For ideal gases, phi = 1.

------------------
End of simulation.
------------------

------------------------------------
Reading input data for simulation 3.
------------------------------------

	SURFACE_SPECIES
	        Hfo_wOH + Mg+2 = Hfo_wOMg+ + H+
	        log_k -15.
	        Hfo_wOH + Ca+2 = Hfo_wOCa+ + H+
	        log_k -15.
	PRINT
		status false
	ADVECTION
	        cells 1
	        shifts 200
	SELECTED_OUTPUT
	        file ex10.pun
	        totals Ca Mg Na Cl C S As
	END
------------------------------------
Beginning of advection calculations.
------------------------------------

Beginning of advection time step 1, cumulative pore volumes 1.000000.

Cell 1.

Using solution 1.	Solution after simulation 2.
Using exchange 1.	Exchange assemblage after simulation 1.
Using surface 1.	
Using pure phase assemblage 1.	

-------------------------------Phase assemblage--------------------------------

                                                      Moles in assemblage
Phase               SI  log IAP  log K(T, P)   Initial       Final       Delta

Calcite           0.00    -8.48     -8.48    1.000e-01   7.584e-02  -2.416e-02
Dolomite          0.00   -17.09    -17.09    1.600e+00   1.596e+00  -4.106e-03

------------------------------Surface composition------------------------------

Diffuse Double Layer Surface-Complexation Model

Hfo           
	  3.777e-03  Surface charge, eq
	  2.025e-02  sigma, C/m²
	  3.292e-02  psi, V
	 -1.282e+00  -F*psi/RT
	  2.776e-01  exp(-F*psi/RT)
	  6.000e+02  specific area, m²/g
	  1.800e+04  m² for   3.000e+01 g


Hfo_w         
	  7.000e-02  moles
	                                   Mole                     Log
	Species               Moles    Fraction    Molality    Molality

	Hfo_wOH           5.051e-02       0.722   5.051e-02      -1.297
	Hfo_wOH2+         1.327e-02       0.190   1.327e-02      -1.877
	Hfo_wO-           4.404e-03       0.063   4.404e-03      -2.356
	Hfo_wOHAsO4-3     1.509e-03       0.022   1.509e-03      -2.821
	Hfo_wOHSO4-2      2.637e-04       0.004   2.637e-04      -3.579
	Hfo_wSO4-         3.480e-05       0.000   3.481e-05      -4.458
	Hfo_wHAsO4-       2.338e-06       0.000   2.338e-06      -5.631
	Hfo_wH2AsO4       1.988e-08       0.000   1.988e-08      -7.702
	Hfo_wOCa+         3.465e-14       0.000   3.465e-14     -13.460
	Hfo_wOMg+         2.567e-14       0.000   2.567e-14     -13.591
	Hfo_wH2AsO3       4.088e-33       0.000   4.088e-33     -32.388

-----------------------------Exchange composition------------------------------

X                1.000e+00 mol

	                               Equiv-    Equivalent      Log 
	Species             Moles      alents      Fraction     Gamma

	NaX               8.458e-01   8.458e-01   8.458e-01     0.000
	CaX2              5.254e-02   1.051e-01   1.051e-01     0.000
	MgX2              2.456e-02   4.911e-02   4.911e-02     0.000
	HX                5.720e-06   5.720e-06   5.720e-06     0.000

-----------------------------Solution composition------------------------------

	Elements           Molality       Moles

	As                1.175e-09   1.175e-09
	C                 3.949e-02   3.949e-02
	Ca                3.306e-04   3.306e-04
	Cl                1.337e-04   1.337e-04
	Mg                2.353e-04   2.353e-04
	Na                8.987e-02   8.987e-02
	S                 1.832e-04   1.832e-04

----------------------------Description of solution----------------------------

                                       pH  =   7.314      Charge balance
                                       pe  =  13.310      Adjusted to redox equilibrium
                        Activity of water  =   0.998
                           Ionic strength  =   6.337e-02
                       Mass of water (kg)  =   1.000e+00
                 Total alkalinity (eq/kg)  =   3.653e-02
                       Total CO2 (mol/kg)  =   3.949e-02
                         Temperature (°C)  =  25.00
                  Electrical balance (eq)  =   5.397e-02
 Percent error, 100*(Cat-|An|)/(Cat+|An|)  =  43.05
                               Iterations  =  11
                                  Total H  = 1.110446e+02
                                  Total O  = 5.562078e+01

----------------------------Distribution of species----------------------------

                                               Log       Log       Log    mole V
   Species          Molality    Activity  Molality  Activity     Gamma   cm³/mol

   OH-             2.588e-07   2.058e-07    -6.587    -6.687    -0.100     (0)  
   H+              5.751e-08   4.854e-08    -7.240    -7.314    -0.074      0.00
   H2O             5.551e+01   9.978e-01     1.744    -0.001     0.000     18.07
As(3)         3.153e-37
   H3AsO3          3.096e-37   3.142e-37   -36.509   -36.503     0.006     (0)  
   H2AsO3-         5.674e-39   4.582e-39   -38.246   -38.339    -0.093     (0)  
   H4AsO3+         0.000e+00   0.000e+00   -44.029   -44.122    -0.093     (0)  
   HAsO3-2         0.000e+00   0.000e+00   -45.354   -45.725    -0.371     (0)  
   AsO3-3          0.000e+00   0.000e+00   -53.275   -54.111    -0.836     (0)  
   AsS(OH)(HS)-    0.000e+00   0.000e+00  -311.255  -311.346    -0.091     (0)  
   As3S4(HS)2-     0.000e+00   0.000e+00  -930.373  -930.464    -0.091     (0)  
As(5)         1.175e-09
   HAsO4-2         8.577e-10   3.646e-10    -9.067    -9.438    -0.371     (0)  
   H2AsO4-         3.168e-10   2.558e-10    -9.499    -9.592    -0.093     (0)  
   AsO4-3          1.152e-13   1.682e-14   -12.938   -13.774    -0.836     (0)  
   H3AsO4          2.442e-15   2.478e-15   -14.612   -14.606     0.006     (0)  
C(-4)         0.000e+00
   CH4             0.000e+00   0.000e+00  -143.111  -143.104     0.006     (0)  
C(4)          3.949e-02
   HCO3-           3.507e-02   2.859e-02    -1.455    -1.544    -0.089     (0)  
   CO2             3.081e-03   3.127e-03    -2.511    -2.505     0.006     (0)  
   NaHCO3          1.137e-03   1.154e-03    -2.944    -2.938     0.006     (0)  
   CO3-2           6.255e-05   2.762e-05    -4.204    -4.559    -0.355     (0)  
   CaHCO3+         5.329e-05   4.373e-05    -4.273    -4.359    -0.086     (0)  
   NaCO3-          4.528e-05   3.691e-05    -4.344    -4.433    -0.089     (0)  
   MgHCO3+         3.711e-05   2.972e-05    -4.430    -4.527    -0.096     (0)  
   CaCO3           5.469e-06   5.550e-06    -5.262    -5.256     0.006     (0)  
   MgCO3           2.308e-06   2.341e-06    -5.637    -5.631     0.006     (0)  
Ca            3.306e-04
   Ca+2            2.703e-04   1.199e-04    -3.568    -3.921    -0.353     (0)  
   CaHCO3+         5.329e-05   4.373e-05    -4.273    -4.359    -0.086     (0)  
   CaCO3           5.469e-06   5.550e-06    -5.262    -5.256     0.006     (0)  
   CaSO4           1.539e-06   1.562e-06    -5.813    -5.806     0.006     (0)  
   CaOH+           4.986e-10   4.092e-10    -9.302    -9.388    -0.086     (0)  
   CaHSO4+         5.500e-13   4.441e-13   -12.260   -12.353    -0.093     (0)  
Cl            1.337e-04
   Cl-             1.337e-04   1.065e-04    -3.874    -3.972    -0.099     (0)  
H(0)          0.000e+00
   H2              0.000e+00   0.000e+00   -44.404   -44.398     0.006     (0)  
Mg            2.353e-04
   Mg+2            1.945e-04   8.885e-05    -3.711    -4.051    -0.340     (0)  
   MgHCO3+         3.711e-05   2.972e-05    -4.430    -4.527    -0.096     (0)  
   MgCO3           2.308e-06   2.341e-06    -5.637    -5.631     0.006     (0)  
   MgSO4           1.339e-06   1.359e-06    -5.873    -5.867     0.006     (0)  
   MgOH+           8.037e-09   6.631e-09    -8.095    -8.178    -0.084     (0)  
Na            8.987e-02
   Na+             8.866e-02   7.178e-02    -1.052    -1.144    -0.092     (0)  
   NaHCO3          1.137e-03   1.154e-03    -2.944    -2.938     0.006     (0)  
   NaCO3-          4.528e-05   3.691e-05    -4.344    -4.433    -0.089     (0)  
   NaSO4-          2.880e-05   2.347e-05    -4.541    -4.629    -0.089     (0)  
O(0)          5.112e-04
   O2              2.556e-04   2.594e-04    -3.592    -3.586     0.006     (0)  
S(-2)         0.000e+00
   HS-             0.000e+00   0.000e+00  -142.685  -142.785    -0.100     (0)  
   H2S             0.000e+00   0.000e+00  -143.163  -143.157     0.006     (0)  
   S5-2            0.000e+00   0.000e+00  -144.808  -145.066    -0.258     (0)  
   S4-2            0.000e+00   0.000e+00  -145.019  -145.300    -0.281     (0)  
   S6-2            0.000e+00   0.000e+00  -145.114  -145.352    -0.238     (0)  
   S-2             0.000e+00   0.000e+00  -148.026  -148.389    -0.363     (0)  
   S3-2            0.000e+00   0.000e+00  -148.444  -148.753    -0.309     (0)  
   S2-2            0.000e+00   0.000e+00  -149.665  -149.999    -0.334     (0)  
   AsS(OH)(HS)-    0.000e+00   0.000e+00  -311.255  -311.346    -0.091     (0)  
   As3S4(HS)2-     0.000e+00   0.000e+00  -930.373  -930.464    -0.091     (0)  
S(6)          1.832e-04
   SO4-2           1.515e-04   6.525e-05    -3.820    -4.185    -0.366     (0)  
   NaSO4-          2.880e-05   2.347e-05    -4.541    -4.629    -0.089     (0)  
   CaSO4           1.539e-06   1.562e-06    -5.813    -5.806     0.006     (0)  
   MgSO4           1.339e-06   1.359e-06    -5.873    -5.867     0.006     (0)  
   HSO4-           3.820e-10   3.080e-10    -9.418    -9.512    -0.094     (0)  
   CaHSO4+         5.500e-13   4.441e-13   -12.260   -12.353    -0.093     (0)  

------------------------------Saturation indices-------------------------------

  Phase               SI** log IAP   log K(298 K,   1 atm)

  Anhydrite        -3.75     -8.11   -4.36  CaSO4
  Aragonite        -0.14     -8.48   -8.34  CaCO3
  Arsenolite      -71.62    -73.00   -1.38  As2O3
  Artinite         -7.64      1.96    9.60  MgCO3:Mg(OH)2:3H2O
  As2O5(cr)       -37.44    -29.21    8.23  As2O5
  As2S3(am)      -478.40   -523.30  -44.90  As2S3
  As_native       -85.84    -98.37  -12.53  As
  Brucite          -6.27     10.57   16.84  Mg(OH)2
  Ca3(AsO4)2:4w   -20.41    -39.32  -18.91  Ca3(AsO4)2:4H2O
  Calcite           0.00     -8.48   -8.48  CaCO3
  CH4(g)         -140.24   -143.10   -2.86  CH4
  Claudetite      -71.66    -73.00   -1.34  As2O3
  CO2(g)           -1.04     -2.50   -1.47  CO2
  Dolomite          0.00    -17.09  -17.09  CaMg(CO3)2
  Dolomite(d)      -0.55    -17.09  -16.54  CaMg(CO3)2
  Epsomite         -6.10     -8.24   -2.14  MgSO4:7H2O
  Gypsum           -3.53     -8.11   -4.58  CaSO4:2H2O
  H2(g)           -41.25    -44.40   -3.15  H2
  H2O(g)           -1.51     -0.00    1.51  H2O
  H2S(g)         -142.16   -143.16   -1.00  H2S
  Halite           -6.70     -5.12    1.58  NaCl
  Huntite          -4.34    -34.31  -29.97  CaMg3(CO3)4
  Hydromagnesite  -15.11    -23.87   -8.76  Mg5(CO3)4(OH)2:4H2O
  Magnesite        -0.58     -8.61   -8.03  MgCO3
  Mirabilite       -5.37     -6.48   -1.11  Na2SO4:10H2O
  Nahcolite        -2.14     -2.69   -0.55  NaHCO3
  Natron           -5.55     -6.86   -1.31  Na2CO3:10H2O
  Nesquehonite     -2.99     -8.61   -5.62  MgCO3:3H2O
  O2(g)            -0.69     -3.59   -2.89  O2
  Orpiment       -477.00   -523.30  -46.30  As2S3
  Portlandite     -12.10     10.70   22.80  Ca(OH)2
  Realgar        -187.28   -207.22  -19.94  AsS
  Sulfur         -106.74   -121.77  -15.03  S
  Thenardite       -6.29     -6.47   -0.18  Na2SO4
  Thermonatrite    -6.97     -6.85    0.12  Na2CO3:H2O
  Trona            -8.74     -9.54   -0.80  NaHCO3:Na2CO3:2H2O

**For a gas, SI = log10(fugacity). Fugacity = pressure * phi / 1 atm.
  For ideal gases, phi = 1.

Beginning of advection time step 2, cumulative pore volumes 2.000000.

Cell 1.

Using solution 1.	Solution after simulation 2.
Using exchange 1.	Exchange assemblage after simulation 3.
Using surface 1.	
Using pure phase assemblage 1.	Pure-phase assemblage after simulation 3.

-------------------------------Phase assemblage--------------------------------

                                                      Moles in assemblage
Phase               SI  log IAP  log K(T, P)   Initial       Final       Delta

Calcite           0.00    -8.48     -8.48    7.584e-02   7.208e-02  -3.757e-03
Dolomite         -0.00   -17.09    -17.09    1.596e+00   1.594e+00  -2.361e-03

------------------------------Surface composition------------------------------

Diffuse Double Layer Surface-Complexation Model

Hfo           
	 -2.481e-03  Surface charge, eq
	 -1.330e-02  sigma, C/m²
	 -3.679e-02  psi, V
	  1.432e+00  -F*psi/RT
	  4.188e+00  exp(-F*psi/RT)
	  6.000e+02  specific area, m²/g
	  1.800e+04  m² for   3.000e+01 g


Hfo_w         
	  7.000e-02  moles
	                                   Mole                     Log
	Species               Moles    Fraction    Molality    Molality

	Hfo_wOH           5.247e-02       0.750   5.247e-02      -1.280
	Hfo_wOH2+         9.039e-03       0.129   9.040e-03      -2.044
	Hfo_wO-           6.976e-03       0.100   6.977e-03      -2.156
	Hfo_wOHAsO4-3     1.511e-03       0.022   1.511e-03      -2.821
	Hfo_wOHSO4-2      5.236e-06       0.000   5.237e-06      -5.281
	Hfo_wHAsO4-       1.004e-06       0.000   1.005e-06      -5.998
	Hfo_wSO4-         4.524e-07       0.000   4.525e-07      -6.344
	Hfo_wH2AsO4       5.600e-09       0.000   5.601e-09      -8.252
	Hfo_wOCa+         1.204e-12       0.000   1.204e-12     -11.919
	Hfo_wOMg+         8.918e-13       0.000   8.919e-13     -12.050
	Hfo_wH2AsO3       1.157e-33       0.000   1.157e-33     -32.937

-----------------------------Exchange composition------------------------------

X                1.000e+00 mol

	                               Equiv-    Equivalent      Log 
	Species             Moles      alents      Fraction     Gamma

	NaX               8.224e-01   8.224e-01   8.224e-01     0.000
	CaX2              6.052e-02   1.210e-01   1.210e-01     0.000
	MgX2              2.828e-02   5.657e-02   5.657e-02     0.000
	HX                8.594e-07   8.594e-07   8.594e-07     0.000

-----------------------------Solution composition------------------------------

	Elements           Molality       Moles

	As                9.444e-08   9.444e-08
	C                 1.560e-02   1.560e-02
	Ca                2.826e-05   2.826e-05
	Cl                1.337e-04   1.337e-04
	Mg                1.898e-05   1.898e-05
	Na                2.352e-02   2.352e-02
	S                 5.279e-04   5.279e-04

----------------------------Description of solution----------------------------

                                       pH  =   8.676      Charge balance
                                       pe  =  11.947      Adjusted to redox equilibrium
                        Activity of water  =   0.999
                           Ionic strength  =   2.119e-02
                       Mass of water (kg)  =   9.999e-01
                 Total alkalinity (eq/kg)  =   1.617e-02
                       Total CO2 (mol/kg)  =   1.560e-02
                         Temperature (°C)  =  25.00
                  Electrical balance (eq)  =   6.258e-03
 Percent error, 100*(Cat-|An|)/(Cat+|An|)  =  15.52
                               Iterations  =  11
                                  Total H  = 1.110192e+02
                                  Total O  = 5.555153e+01

----------------------------Distribution of species----------------------------

                                               Log       Log       Log    mole V
   Species          Molality    Activity  Molality  Activity     Gamma   cm³/mol

   OH-             5.489e-06   4.741e-06    -5.261    -5.324    -0.064     (0)  
   H+              2.378e-09   2.110e-09    -8.624    -8.676    -0.052      0.00
   H2O             5.551e+01   9.993e-01     1.744    -0.000     0.000     18.07
As(3)         1.185e-37
   H3AsO3          8.532e-38   8.574e-38   -37.069   -37.067     0.002     (0)  
   H2AsO3-         3.315e-38   2.877e-38   -37.480   -37.541    -0.062     (0)  
   HAsO3-2         0.000e+00   0.000e+00   -43.319   -43.565    -0.246     (0)  
   H4AsO3+         0.000e+00   0.000e+00   -45.986   -46.048    -0.062     (0)  
   AsO3-3          0.000e+00   0.000e+00   -50.036   -50.590    -0.554     (0)  
   AsS(OH)(HS)-    0.000e+00   0.000e+00  -314.643  -314.703    -0.060     (0)  
   As3S4(HS)2-     0.000e+00   0.000e+00  -943.201  -943.261    -0.060     (0)  
As(5)         9.444e-08
   HAsO4-2         9.240e-08   5.241e-08    -7.034    -7.281    -0.246     (0)  
   H2AsO4-         1.842e-09   1.599e-09    -8.735    -8.796    -0.062     (0)  
   AsO4-3          1.992e-10   5.561e-11    -9.701   -10.255    -0.554     (0)  
   H3AsO4          6.697e-16   6.730e-16   -15.174   -15.172     0.002     (0)  
C(-4)         0.000e+00
   CH4             0.000e+00   0.000e+00  -144.805  -144.803     0.002     (0)  
C(4)          1.560e-02
   HCO3-           1.477e-02   1.289e-02    -1.831    -1.890    -0.059     (0)  
   CO3-2           4.933e-04   2.865e-04    -3.307    -3.543    -0.236     (0)  
   NaHCO3          1.456e-04   1.464e-04    -3.837    -3.835     0.002     (0)  
   NaCO3-          1.234e-04   1.077e-04    -3.909    -3.968    -0.059     (0)  
   CO2             6.090e-05   6.119e-05    -4.215    -4.213     0.002     (0)  
   CaCO3           5.523e-06   5.550e-06    -5.258    -5.256     0.002     (0)  
   MgCO3           2.330e-06   2.341e-06    -5.633    -5.631     0.002     (0)  
   CaHCO3+         2.171e-06   1.901e-06    -5.663    -5.721    -0.058     (0)  
   MgHCO3+         1.491e-06   1.292e-06    -5.826    -5.889    -0.062     (0)  
Ca            2.826e-05
   Ca+2            1.992e-05   1.156e-05    -4.701    -4.937    -0.236     (0)  
   CaCO3           5.523e-06   5.550e-06    -5.258    -5.256     0.002     (0)  
   CaHCO3+         2.171e-06   1.901e-06    -5.663    -5.721    -0.058     (0)  
   CaSO4           6.516e-07   6.548e-07    -6.186    -6.184     0.002     (0)  
   CaOH+           1.038e-09   9.088e-10    -8.984    -9.042    -0.058     (0)  
   CaHSO4+         9.327e-15   8.094e-15   -14.030   -14.092    -0.062     (0)  
Cl            1.337e-04
   Cl-             1.337e-04   1.156e-04    -3.874    -3.937    -0.063     (0)  
H(0)          0.000e+00
   H2              0.000e+00   0.000e+00   -44.397   -44.395     0.002     (0)  
Mg            1.898e-05
   Mg+2            1.457e-05   8.565e-06    -4.836    -5.067    -0.231     (0)  
   MgCO3           2.330e-06   2.341e-06    -5.633    -5.631     0.002     (0)  
   MgHCO3+         1.491e-06   1.292e-06    -5.826    -5.889    -0.062     (0)  
   MgSO4           5.671e-07   5.698e-07    -6.246    -6.244     0.002     (0)  
   MgOH+           1.678e-08   1.473e-08    -7.775    -7.832    -0.057     (0)  
Na            2.352e-02
   Na+             2.322e-02   2.019e-02    -1.634    -1.695    -0.061     (0)  
   NaHCO3          1.456e-04   1.464e-04    -3.837    -3.835     0.002     (0)  
   NaCO3-          1.234e-04   1.077e-04    -3.909    -3.968    -0.059     (0)  
   NaSO4-          3.290e-05   2.872e-05    -4.483    -4.542    -0.059     (0)  
O(0)          5.112e-04
   O2              2.556e-04   2.569e-04    -3.592    -3.590     0.002     (0)  
S(-2)         0.000e+00
   HS-             0.000e+00   0.000e+00  -143.436  -143.500    -0.064     (0)  
   S5-2            0.000e+00   0.000e+00  -144.230  -144.419    -0.189     (0)  
   S4-2            0.000e+00   0.000e+00  -144.452  -144.653    -0.201     (0)  
   S6-2            0.000e+00   0.000e+00  -144.527  -144.705    -0.178     (0)  
   H2S             0.000e+00   0.000e+00  -145.236  -145.234     0.002     (0)  
   S-2             0.000e+00   0.000e+00  -147.502  -147.742    -0.240     (0)  
   S3-2            0.000e+00   0.000e+00  -147.891  -148.106    -0.215     (0)  
   S2-2            0.000e+00   0.000e+00  -149.125  -149.352    -0.227     (0)  
   AsS(OH)(HS)-    0.000e+00   0.000e+00  -314.643  -314.703    -0.060     (0)  
   As3S4(HS)2-     0.000e+00   0.000e+00  -943.201  -943.261    -0.060     (0)  
S(6)          5.279e-04
   SO4-2           4.938e-04   2.838e-04    -3.306    -3.547    -0.241     (0)  
   NaSO4-          3.290e-05   2.872e-05    -4.483    -4.542    -0.059     (0)  
   CaSO4           6.516e-07   6.548e-07    -6.186    -6.184     0.002     (0)  
   MgSO4           5.671e-07   5.698e-07    -6.246    -6.244     0.002     (0)  
   HSO4-           6.702e-11   5.822e-11   -10.174   -10.235    -0.061     (0)  
   CaHSO4+         9.327e-15   8.094e-15   -14.030   -14.092    -0.062     (0)  

------------------------------Saturation indices-------------------------------

  Phase               SI** log IAP   log K(298 K,   1 atm)

  Anhydrite        -4.12     -8.48   -4.36  CaSO4
  Aragonite        -0.14     -8.48   -8.34  CaCO3
  Arsenolite      -72.75    -74.13   -1.38  As2O3
  Artinite         -5.93      3.67    9.60  MgCO3:Mg(OH)2:3H2O
  As2O5(cr)       -38.57    -30.34    8.23  As2O5
  As2S3(am)      -485.76   -530.66  -44.90  As2S3
  As_native       -86.40    -98.93  -12.53  As
  Brucite          -4.56     12.28   16.84  Mg(OH)2
  Ca3(AsO4)2:4w   -16.42    -35.32  -18.91  Ca3(AsO4)2:4H2O
  Calcite           0.00     -8.48   -8.48  CaCO3
  CH4(g)         -141.94   -144.80   -2.86  CH4
  Claudetite      -72.79    -74.13   -1.34  As2O3
  CO2(g)           -2.75     -4.21   -1.47  CO2
  Dolomite         -0.00    -17.09  -17.09  CaMg(CO3)2
  Dolomite(d)      -0.55    -17.09  -16.54  CaMg(CO3)2
  Epsomite         -6.48     -8.62   -2.14  MgSO4:7H2O
  Gypsum           -3.90     -8.48   -4.58  CaSO4:2H2O
  H2(g)           -41.25    -44.40   -3.15  H2
  H2O(g)           -1.51     -0.00    1.51  H2O
  H2S(g)         -144.24   -145.23   -1.00  H2S
  Halite           -7.21     -5.63    1.58  NaCl
  Huntite          -4.34    -34.31  -29.97  CaMg3(CO3)4
  Hydromagnesite  -13.40    -22.16   -8.76  Mg5(CO3)4(OH)2:4H2O
  Magnesite        -0.58     -8.61   -8.03  MgCO3
  Mirabilite       -5.83     -6.94   -1.11  Na2SO4:10H2O
  Nahcolite        -3.04     -3.58   -0.55  NaHCO3
  Natron           -5.62     -6.94   -1.31  Na2CO3:10H2O
  Nesquehonite     -2.99     -8.61   -5.62  MgCO3:3H2O
  O2(g)            -0.70     -3.59   -2.89  O2
  Orpiment       -484.36   -530.66  -46.30  As2S3
  Portlandite     -10.39     12.41   22.80  Ca(OH)2
  Realgar        -189.92   -209.86  -19.94  AsS
  Sulfur         -108.82   -123.85  -15.03  S
  Thenardite       -6.76     -6.94   -0.18  Na2SO4
  Thermonatrite    -7.06     -6.93    0.12  Na2CO3:H2O
  Trona            -9.72    -10.52   -0.80  NaHCO3:Na2CO3:2H2O

**For a gas, SI = log10(fugacity). Fugacity = pressure * phi / 1 atm.
  For ideal gases, phi = 1.

Beginning of advection time step 3, cumulative pore volumes 3.000000.

Cell 1.

Using solution 1.	Solution after simulation 2.
Using exchange 1.	Exchange assemblage after simulation 3.
Using surface 1.	
Using pure phase assemblage 1.	Pure-phase assemblage after simulation 3.

-------------------------------Phase assemblage--------------------------------

                                                      Moles in assemblage
Phase               SI  log IAP  log K(T, P)   Initial       Final       Delta

Calcite           0.00    -8.48     -8.48    7.208e-02   6.993e-02  -2.154e-03
Dolomite          0.00   -17.09    -17.09    1.594e+00   1.593e+00  -9.481e-04

------------------------------Surface composition------------------------------

Diffuse Double Layer Surface-Complexation Model

Hfo           
	 -4.260e-03  Surface charge, eq
	 -2.284e-02  sigma, C/m²
	 -6.408e-02  psi, V
	  2.494e+00  -F*psi/RT
	  1.211e+01  exp(-F*psi/RT)
	  6.000e+02  specific area, m²/g
	  1.800e+04  m² for   3.000e+01 g


Hfo_w         
	  7.000e-02  moles
	                                   Mole                     Log
	Species               Moles    Fraction    Molality    Molality

	Hfo_wOH           5.257e-02       0.751   5.258e-02      -1.279
	Hfo_wOH2+         8.094e-03       0.116   8.095e-03      -2.092
	Hfo_wO-           7.822e-03       0.112   7.823e-03      -2.107
	Hfo_wOHAsO4-3     1.510e-03       0.022   1.510e-03      -2.821
	Hfo_wHAsO4-       8.018e-07       0.000   8.018e-07      -6.096
	Hfo_wOHSO4-2      3.148e-07       0.000   3.148e-07      -6.502
	Hfo_wSO4-         2.430e-08       0.000   2.430e-08      -7.614
	Hfo_wH2AsO4       3.994e-09       0.000   3.995e-09      -8.399
	Hfo_wOCa+         5.109e-12       0.000   5.110e-12     -11.292
	Hfo_wOMg+         3.784e-12       0.000   3.785e-12     -11.422
	Hfo_wH2AsO3       8.259e-34       0.000   8.260e-34     -33.083

-----------------------------Exchange composition------------------------------

X                1.000e+00 mol

	                               Equiv-    Equivalent      Log 
	Species             Moles      alents      Fraction     Gamma

	NaX               8.078e-01   8.078e-01   8.078e-01    -0.000
	CaX2              6.549e-02   1.310e-01   1.310e-01    -0.000
	MgX2              3.061e-02   6.121e-02   6.121e-02    -0.000
	HX                4.107e-07   4.107e-07   4.107e-07    -0.000

-----------------------------Solution composition------------------------------

	Elements           Molality       Moles

	As                6.460e-07   6.459e-07
	C                 1.117e-02   1.117e-02
	Ca                1.472e-05   1.472e-05
	Cl                1.337e-04   1.337e-04
	Mg                9.093e-06   9.092e-06
	Na                1.472e-02   1.471e-02
	S                 2.404e-04   2.404e-04

----------------------------Description of solution----------------------------

                                       pH  =   9.186      Charge balance
                                       pe  =  11.437      Adjusted to redox equilibrium
                        Activity of water  =   1.000
                           Ionic strength  =   1.487e-02
                       Mass of water (kg)  =   9.999e-01
                 Total alkalinity (eq/kg)  =   1.237e-02
                       Total CO2 (mol/kg)  =   1.117e-02
                         Temperature (°C)  =  25.00
                  Electrical balance (eq)  =   1.779e-03
 Percent error, 100*(Cat-|An|)/(Cat+|An|)  =   6.54
                               Iterations  =  13
                                  Total H  = 1.110143e+02
                                  Total O  = 5.553713e+01

----------------------------Distribution of species----------------------------

                                               Log       Log       Log    mole V
   Species          Molality    Activity  Molality  Activity     Gamma   cm³/mol

   OH-             1.740e-05   1.535e-05    -4.759    -4.814    -0.055     (0)  
   H+              7.244e-10   6.520e-10    -9.140    -9.186    -0.046      0.00
   H2O             5.551e+01   9.996e-01     1.744    -0.000     0.000     18.07
As(3)         1.359e-37
   H2AsO3-         7.497e-38   6.633e-38   -37.125   -37.178    -0.053     (0)  
   H3AsO3          6.088e-38   6.109e-38   -37.216   -37.214     0.001     (0)  
   HAsO3-2         0.000e+00   0.000e+00   -42.480   -42.693    -0.213     (0)  
   H4AsO3+         0.000e+00   0.000e+00   -46.652   -46.705    -0.053     (0)  
   AsO3-3          0.000e+00   0.000e+00   -48.728   -49.207    -0.478     (0)  
   AsS(OH)(HS)-    0.000e+00   0.000e+00  -316.926  -316.977    -0.052     (0)  
   As3S4(HS)2-     0.000e+00   0.000e+00  -951.051  -951.103    -0.052     (0)  
As(5)         6.460e-07
   HAsO4-2         6.378e-07   3.909e-07    -6.195    -6.408    -0.213     (0)  
   H2AsO4-         4.163e-09   3.684e-09    -8.381    -8.434    -0.053     (0)  
   AsO4-3          4.039e-09   1.342e-09    -8.394    -8.872    -0.478     (0)  
   H3AsO4          4.775e-16   4.792e-16   -15.321   -15.319     0.001     (0)  
C(-4)         0.000e+00
   CH4             0.000e+00   0.000e+00  -145.479  -145.477     0.001     (0)  
C(4)          1.117e-02
   HCO3-           9.902e-03   8.802e-03    -2.004    -2.055    -0.051     (0)  
   CO3-2           1.014e-03   6.331e-04    -2.994    -3.198    -0.205     (0)  
   NaCO3-          1.701e-04   1.512e-04    -3.769    -3.820    -0.051     (0)  
   NaHCO3          6.326e-05   6.348e-05    -4.199    -4.197     0.001     (0)  
   CO2             1.287e-05   1.291e-05    -4.891    -4.889     0.001     (0)  
   CaCO3           5.531e-06   5.550e-06    -5.257    -5.256     0.001     (0)  
   MgCO3           2.333e-06   2.341e-06    -5.632    -5.631     0.001     (0)  
   CaHCO3+         6.593e-07   5.874e-07    -6.181    -6.231    -0.050     (0)  
   MgHCO3+         4.516e-07   3.992e-07    -6.345    -6.399    -0.054     (0)  
Ca            1.472e-05
   Ca+2            8.385e-06   5.232e-06    -5.077    -5.281    -0.205     (0)  
   CaCO3           5.531e-06   5.550e-06    -5.257    -5.256     0.001     (0)  
   CaHCO3+         6.593e-07   5.874e-07    -6.181    -6.231    -0.050     (0)  
   CaSO4           1.482e-07   1.487e-07    -6.829    -6.828     0.001     (0)  
   CaOH+           1.494e-09   1.331e-09    -8.826    -8.876    -0.050     (0)  
   CaHSO4+         6.418e-16   5.679e-16   -15.193   -15.246    -0.053     (0)  
Cl            1.337e-04
   Cl-             1.337e-04   1.180e-04    -3.874    -3.928    -0.054     (0)  
H(0)          0.000e+00
   H2              0.000e+00   0.000e+00   -44.396   -44.395     0.001     (0)  
Mg            9.093e-06
   Mg+2            6.155e-06   3.875e-06    -5.211    -5.412    -0.201     (0)  
   MgCO3           2.333e-06   2.341e-06    -5.632    -5.631     0.001     (0)  
   MgHCO3+         4.516e-07   3.992e-07    -6.345    -6.399    -0.054     (0)  
   MgSO4           1.289e-07   1.294e-07    -6.890    -6.888     0.001     (0)  
   MgOH+           2.417e-08   2.157e-08    -7.617    -7.666    -0.049     (0)  
Na            1.472e-02
   Na+             1.447e-02   1.282e-02    -1.839    -1.892    -0.052     (0)  
   NaCO3-          1.701e-04   1.512e-04    -3.769    -3.820    -0.051     (0)  
   NaHCO3          6.326e-05   6.348e-05    -4.199    -4.197     0.001     (0)  
   NaSO4-          1.030e-05   9.154e-06    -4.987    -5.038    -0.051     (0)  
O(0)          5.112e-04
   O2              2.556e-04   2.565e-04    -3.592    -3.591     0.001     (0)  
S(-2)         0.000e+00
   HS-             0.000e+00   0.000e+00  -144.253  -144.308    -0.055     (0)  
   S5-2            0.000e+00   0.000e+00  -144.549  -144.717    -0.168     (0)  
   S4-2            0.000e+00   0.000e+00  -144.774  -144.951    -0.178     (0)  
   S6-2            0.000e+00   0.000e+00  -144.844  -145.003    -0.159     (0)  
   H2S             0.000e+00   0.000e+00  -146.554  -146.552     0.001     (0)  
   S-2             0.000e+00   0.000e+00  -147.833  -148.040    -0.207     (0)  
   S3-2            0.000e+00   0.000e+00  -148.216  -148.404    -0.188     (0)  
   S2-2            0.000e+00   0.000e+00  -149.453  -149.650    -0.197     (0)  
   AsS(OH)(HS)-    0.000e+00   0.000e+00  -316.926  -316.977    -0.052     (0)  
   As3S4(HS)2-     0.000e+00   0.000e+00  -951.051  -951.103    -0.052     (0)  
S(6)          2.404e-04
   SO4-2           2.298e-04   1.424e-04    -3.639    -3.846    -0.208     (0)  
   NaSO4-          1.030e-05   9.154e-06    -4.987    -5.038    -0.051     (0)  
   CaSO4           1.482e-07   1.487e-07    -6.829    -6.828     0.001     (0)  
   MgSO4           1.289e-07   1.294e-07    -6.890    -6.888     0.001     (0)  
   HSO4-           1.019e-11   9.028e-12   -10.992   -11.044    -0.053     (0)  
   CaHSO4+         6.418e-16   5.679e-16   -15.193   -15.246    -0.053     (0)  

------------------------------Saturation indices-------------------------------

  Phase               SI** log IAP   log K(298 K,   1 atm)

  Anhydrite        -4.77     -9.13   -4.36  CaSO4
  Aragonite        -0.14     -8.48   -8.34  CaCO3
  Arsenolite      -73.05    -74.43   -1.38  As2O3
  Artinite         -5.25      4.35    9.60  MgCO3:Mg(OH)2:3H2O
  As2O5(cr)       -38.87    -30.64    8.23  As2O5
  As2S3(am)      -490.01   -534.91  -44.90  As2S3
  As_native       -86.55    -99.08  -12.53  As
  Brucite          -3.88     12.96   16.84  Mg(OH)2
  Ca3(AsO4)2:4w   -14.68    -33.59  -18.91  Ca3(AsO4)2:4H2O
  Calcite           0.00     -8.48   -8.48  CaCO3
  CH4(g)         -142.62   -145.48   -2.86  CH4
  Claudetite      -73.09    -74.43   -1.34  As2O3
  CO2(g)           -3.42     -4.89   -1.47  CO2
  Dolomite          0.00    -17.09  -17.09  CaMg(CO3)2
  Dolomite(d)      -0.55    -17.09  -16.54  CaMg(CO3)2
  Epsomite         -7.12     -9.26   -2.14  MgSO4:7H2O
  Gypsum           -4.55     -9.13   -4.58  CaSO4:2H2O
  H2(g)           -41.24    -44.39   -3.15  H2
  H2O(g)           -1.51     -0.00    1.51  H2O
  H2S(g)         -145.56   -146.55   -1.00  H2S
  Halite           -7.40     -5.82    1.58  NaCl
  Huntite          -4.34    -34.31  -29.97  CaMg3(CO3)4
  Hydromagnesite  -12.72    -21.48   -8.76  Mg5(CO3)4(OH)2:4H2O
  Magnesite        -0.58     -8.61   -8.03  MgCO3
  Mirabilite       -6.52     -7.63   -1.11  Na2SO4:10H2O
  Nahcolite        -3.40     -3.95   -0.55  NaHCO3
  Natron           -5.67     -6.98   -1.31  Na2CO3:10H2O
  Nesquehonite     -2.99     -8.61   -5.62  MgCO3:3H2O
  O2(g)            -0.70     -3.59   -2.89  O2
  Orpiment       -488.61   -534.91  -46.30  As2S3
  Portlandite      -9.71     13.09   22.80  Ca(OH)2
  Realgar        -191.39   -211.33  -19.94  AsS
  Sulfur         -110.14   -125.17  -15.03  S
  Thenardite       -7.45     -7.63   -0.18  Na2SO4
  Thermonatrite    -7.11     -6.98    0.12  Na2CO3:H2O
  Trona           -10.14    -10.93   -0.80  NaHCO3:Na2CO3:2H2O

**For a gas, SI = log10(fugacity). Fugacity = pressure * phi / 1 atm.
  For ideal gases, phi = 1.

Beginning of advection time step 4, cumulative pore volumes 4.000000.

Cell 1.

Using solution 1.	Solution after simulation 2.
Using exchange 1.	Exchange assemblage after simulation 3.
Using surface 1.	
Using pure phase assemblage 1.	Pure-phase assemblage after simulation 3.

-------------------------------Phase assemblage--------------------------------

                                                      Moles in assemblage
Phase               SI  log IAP  log K(T, P)   Initial       Final       Delta

Calcite           0.00    -8.48     -8.48    6.993e-02   6.814e-02  -1.787e-03
Dolomite          0.00   -17.09    -17.09    1.593e+00   1.592e+00  -6.250e-04

------------------------------Surface composition------------------------------

Diffuse Double Layer Surface-Complexation Model

Hfo           
	 -4.817e-03  Surface charge, eq
	 -2.582e-02  sigma, C/m²
	 -7.143e-02  psi, V
	  2.780e+00  -F*psi/RT
	  1.613e+01  exp(-F*psi/RT)
	  6.000e+02  specific area, m²/g
	  1.800e+04  m² for   3.000e+01 g


Hfo_w         
	  7.000e-02  moles
	                                   Mole                     Log
	Species               Moles    Fraction    Molality    Molality

	Hfo_wOH           5.257e-02       0.751   5.258e-02      -1.279
	Hfo_wO-           8.103e-03       0.116   8.103e-03      -2.091
	Hfo_wOH2+         7.814e-03       0.112   7.815e-03      -2.107
	Hfo_wOHAsO4-3     1.509e-03       0.022   1.509e-03      -2.821
	Hfo_wHAsO4-       7.467e-07       0.000   7.468e-07      -6.127
	Hfo_wOHSO4-2      1.776e-07       0.000   1.776e-07      -6.750
	Hfo_wSO4-         1.324e-08       0.000   1.324e-08      -7.878
	Hfo_wH2AsO4       3.592e-09       0.000   3.592e-09      -8.445
	Hfo_wOCa+         7.711e-12       0.000   7.712e-12     -11.113
	Hfo_wOMg+         5.712e-12       0.000   5.712e-12     -11.243
	Hfo_wH2AsO3       7.427e-34       0.000   7.428e-34     -33.129

-----------------------------Exchange composition------------------------------

X                1.000e+00 mol

	                               Equiv-    Equivalent      Log 
	Species             Moles      alents      Fraction     Gamma

	NaX               7.952e-01   7.952e-01   7.952e-01     0.000
	CaX2              6.977e-02   1.395e-01   1.395e-01     0.000
	MgX2              3.261e-02   6.522e-02   6.522e-02     0.000
	HX                3.390e-07   3.390e-07   3.390e-07     0.000

-----------------------------Solution composition------------------------------

	Elements           Molality       Moles

	As                1.086e-06   1.086e-06
	C                 1.016e-02   1.016e-02
	Ca                1.291e-05   1.291e-05
	Cl                1.337e-04   1.337e-04
	Mg                7.774e-06   7.773e-06
	Na                1.270e-02   1.269e-02
	S                 2.352e-04   2.352e-04

----------------------------Description of solution----------------------------

                                       pH  =   9.325      Charge balance
                                       pe  =  11.297      Adjusted to redox equilibrium
                        Activity of water  =   1.000
                           Ionic strength  =   1.366e-02
                       Mass of water (kg)  =   9.999e-01
                 Total alkalinity (eq/kg)  =   1.157e-02
                       Total CO2 (mol/kg)  =   1.016e-02
                         Temperature (°C)  =  25.00
                  Electrical balance (eq)  =   5.566e-04
 Percent error, 100*(Cat-|An|)/(Cat+|An|)  =   2.28
                               Iterations  =  14
                                  Total H  = 1.110130e+02
                                  Total O  = 5.553407e+01

----------------------------Distribution of species----------------------------

                                               Log       Log       Log    mole V
   Species          Molality    Activity  Molality  Activity     Gamma   cm³/mol

   OH-             2.389e-05   2.117e-05    -4.622    -4.674    -0.053     (0)  
   H+              5.235e-10   4.727e-10    -9.281    -9.325    -0.044      0.00
   H2O             5.551e+01   9.996e-01     1.744    -0.000     0.000     18.07
As(3)         1.474e-37
   H2AsO3-         9.259e-38   8.228e-38   -37.033   -37.085    -0.051     (0)  
   H3AsO3          5.477e-38   5.494e-38   -37.261   -37.260     0.001     (0)  
   HAsO3-2         0.000e+00   0.000e+00   -42.254   -42.459    -0.205     (0)  
   H4AsO3+         0.000e+00   0.000e+00   -46.839   -46.891    -0.051     (0)  
   AsO3-3          0.000e+00   0.000e+00   -48.372   -48.834    -0.462     (0)  
   AsS(OH)(HS)-    0.000e+00   0.000e+00  -317.392  -317.442    -0.050     (0)  
   As3S4(HS)2-     0.000e+00   0.000e+00  -952.725  -952.775    -0.050     (0)  
As(5)         1.086e-06
   HAsO4-2         1.072e-06   6.686e-07    -5.970    -6.175    -0.205     (0)  
   AsO4-3          9.163e-09   3.166e-09    -8.038    -8.499    -0.462     (0)  
   H2AsO4-         5.141e-09   4.568e-09    -8.289    -8.340    -0.051     (0)  
   H3AsO4          4.295e-16   4.309e-16   -15.367   -15.366     0.001     (0)  
C(-4)         0.000e+00
   CH4             0.000e+00   0.000e+00  -145.672  -145.671     0.001     (0)  
C(4)          1.016e-02
   HCO3-           8.701e-03   7.766e-03    -2.060    -2.110    -0.049     (0)  
   CO3-2           1.214e-03   7.704e-04    -2.916    -3.113    -0.197     (0)  
   NaCO3-          1.782e-04   1.591e-04    -3.749    -3.798    -0.049     (0)  
   NaHCO3          4.827e-05   4.842e-05    -4.316    -4.315     0.001     (0)  
   CO2             8.231e-06   8.257e-06    -5.085    -5.083     0.001     (0)  
   CaCO3           5.532e-06   5.550e-06    -5.257    -5.256     0.001     (0)  
   MgCO3           2.334e-06   2.341e-06    -5.632    -5.631     0.001     (0)  
   CaHCO3+         4.761e-07   4.259e-07    -6.322    -6.371    -0.048     (0)  
   MgHCO3+         3.260e-07   2.894e-07    -6.487    -6.538    -0.052     (0)  
Ca            1.291e-05
   Ca+2            6.780e-06   4.300e-06    -5.169    -5.367    -0.198     (0)  
   CaCO3           5.532e-06   5.550e-06    -5.257    -5.256     0.001     (0)  
   CaHCO3+         4.761e-07   4.259e-07    -6.322    -6.371    -0.048     (0)  
   CaSO4           1.219e-07   1.222e-07    -6.914    -6.913     0.001     (0)  
   CaOH+           1.687e-09   1.509e-09    -8.773    -8.821    -0.048     (0)  
   CaHSO4+         3.810e-16   3.385e-16   -15.419   -15.470    -0.051     (0)  
Cl            1.337e-04
   Cl-             1.337e-04   1.185e-04    -3.874    -3.926    -0.052     (0)  
H(0)          0.000e+00
   H2              0.000e+00   0.000e+00   -44.396   -44.395     0.001     (0)  
Mg            7.774e-06
   Mg+2            4.980e-06   3.185e-06    -5.303    -5.497    -0.194     (0)  
   MgCO3           2.334e-06   2.341e-06    -5.632    -5.631     0.001     (0)  
   MgHCO3+         3.260e-07   2.894e-07    -6.487    -6.538    -0.052     (0)  
   MgSO4           1.061e-07   1.064e-07    -6.974    -6.973     0.001     (0)  
   MgOH+           2.729e-08   2.445e-08    -7.564    -7.612    -0.048     (0)  
Na            1.270e-02
   Na+             1.246e-02   1.109e-02    -1.904    -1.955    -0.051     (0)  
   NaCO3-          1.782e-04   1.591e-04    -3.749    -3.798    -0.049     (0)  
   NaHCO3          4.827e-05   4.842e-05    -4.316    -4.315     0.001     (0)  
   NaSO4-          8.872e-06   7.918e-06    -5.052    -5.101    -0.049     (0)  
O(0)          5.112e-04
   O2              2.556e-04   2.564e-04    -3.592    -3.591     0.001     (0)  
S(-2)         0.000e+00
   HS-             0.000e+00   0.000e+00  -144.395  -144.447    -0.053     (0)  
   S5-2            0.000e+00   0.000e+00  -144.554  -144.717    -0.163     (0)  
   S4-2            0.000e+00   0.000e+00  -144.779  -144.951    -0.172     (0)  
   S6-2            0.000e+00   0.000e+00  -144.848  -145.003    -0.155     (0)  
[...]
	HX                8.614e-06   8.614e-06   8.614e-06    -0.000

-----------------------------Solution composition------------------------------

	Elements           Molality       Moles

	As                3.874e-10   3.874e-10
	C                 7.118e-03   7.118e-03
	Ca                1.828e-03   1.828e-03
	Cl                1.337e-04   1.337e-04
	Mg                1.439e-03   1.439e-03
	Na                1.228e-04   1.228e-04
	S                 2.351e-04   2.351e-04

----------------------------Description of solution----------------------------

                                       pH  =   7.046      Charge balance
                                       pe  =  13.577      Adjusted to redox equilibrium
                        Activity of water  =   1.000
                           Ionic strength  =   9.625e-03
                       Mass of water (kg)  =   9.999e-01
                 Total alkalinity (eq/kg)  =   6.053e-03
                       Total CO2 (mol/kg)  =   7.118e-03
                         Temperature (°C)  =  25.00
                  Electrical balance (eq)  =   1.545e-08
 Percent error, 100*(Cat-|An|)/(Cat+|An|)  =   0.00
                               Iterations  =  10
                                  Total H  = 1.110125e+02
                                  Total O  = 5.552494e+01

----------------------------Distribution of species----------------------------

                                               Log       Log       Log    mole V
   Species          Molality    Activity  Molality  Activity     Gamma   cm³/mol

   OH-             1.233e-07   1.112e-07    -6.909    -6.954    -0.045     (0)  
   H+              9.846e-08   9.005e-08    -7.007    -7.046    -0.039      0.00
   H2O             5.551e+01   9.998e-01     1.744    -0.000     0.000     18.07
As(3)         3.954e-37
   H3AsO3          3.920e-37   3.928e-37   -36.407   -36.406     0.001     (0)  
   H2AsO3-         3.418e-39   3.088e-39   -38.466   -38.510    -0.044     (0)  
   H4AsO3+         0.000e+00   0.000e+00   -43.712   -43.756    -0.044     (0)  
   HAsO3-2         0.000e+00   0.000e+00   -45.988   -46.165    -0.176     (0)  
   AsO3-3          0.000e+00   0.000e+00   -54.422   -54.819    -0.397     (0)  
   AsS(OH)(HS)-    0.000e+00   0.000e+00  -309.840  -309.883    -0.043     (0)  
   As3S4(HS)2-     0.000e+00   0.000e+00  -925.498  -925.541    -0.043     (0)  
As(5)         3.874e-10
   HAsO4-2         1.977e-10   1.317e-10    -9.704    -9.880    -0.176     (0)  
   H2AsO4-         1.897e-10   1.714e-10    -9.722    -9.766    -0.044     (0)  
   AsO4-3          8.164e-15   3.274e-15   -14.088   -14.485    -0.397     (0)  
   H3AsO4          3.073e-15   3.079e-15   -14.512   -14.512     0.001     (0)  
C(-4)         0.000e+00
   CH4             0.000e+00   0.000e+00  -143.555  -143.554     0.001     (0)  
C(4)          7.118e-03
   HCO3-           5.879e-03   5.330e-03    -2.231    -2.273    -0.043     (0)  
   CO2             1.077e-03   1.079e-03    -2.968    -2.967     0.001     (0)  
   CaHCO3+         8.631e-05   7.837e-05    -4.064    -4.106    -0.042     (0)  
   MgHCO3+         6.320e-05   5.707e-05    -4.199    -4.244    -0.044     (0)  
   CaCO3           5.349e-06   5.361e-06    -5.272    -5.271     0.001     (0)  
   CO3-2           4.110e-06   2.776e-06    -5.386    -5.557    -0.170     (0)  
   MgCO3           2.419e-06   2.424e-06    -5.616    -5.615     0.001     (0)  
   NaHCO3          3.310e-07   3.318e-07    -6.480    -6.479     0.001     (0)  
   NaCO3-          6.311e-09   5.721e-09    -8.200    -8.243    -0.043     (0)  
Ca            1.828e-03
   Ca+2            1.708e-03   1.153e-03    -2.767    -2.938    -0.171     (0)  
   CaHCO3+         8.631e-05   7.837e-05    -4.064    -4.106    -0.042     (0)  
   CaSO4           2.792e-05   2.798e-05    -4.554    -4.553     0.001     (0)  
   CaCO3           5.349e-06   5.361e-06    -5.272    -5.271     0.001     (0)  
   CaOH+           2.340e-09   2.124e-09    -8.631    -8.673    -0.042     (0)  
   CaHSO4+         1.634e-11   1.476e-11   -10.787   -10.831    -0.044     (0)  
Cl            1.337e-04
   Cl-             1.337e-04   1.206e-04    -3.874    -3.919    -0.045     (0)  
H(0)          0.000e+00
   H2              0.000e+00   0.000e+00   -44.395   -44.394     0.001     (0)  
Mg            1.439e-03
   Mg+2            1.348e-03   9.151e-04    -2.870    -3.039    -0.168     (0)  
   MgHCO3+         6.320e-05   5.707e-05    -4.199    -4.244    -0.044     (0)  
   MgSO4           2.604e-05   2.610e-05    -4.584    -4.583     0.001     (0)  
   MgCO3           2.419e-06   2.424e-06    -5.616    -5.615     0.001     (0)  
   MgOH+           4.058e-08   3.689e-08    -7.392    -7.433    -0.041     (0)  
Na            1.228e-04
   Na+             1.224e-04   1.107e-04    -3.912    -3.956    -0.044     (0)  
   NaHCO3          3.310e-07   3.318e-07    -6.480    -6.479     0.001     (0)  
   NaSO4-          7.444e-08   6.748e-08    -7.128    -7.171    -0.043     (0)  
   NaCO3-          6.311e-09   5.721e-09    -8.200    -8.243    -0.043     (0)  
O(0)          5.112e-04
   O2              2.556e-04   2.562e-04    -3.592    -3.591     0.001     (0)  
S(-2)         0.000e+00
   HS-             0.000e+00   0.000e+00  -142.190  -142.235    -0.045     (0)  
   H2S             0.000e+00   0.000e+00  -142.340  -142.339     0.001     (0)  
   S5-2            0.000e+00   0.000e+00  -144.640  -144.785    -0.144     (0)  
   S4-2            0.000e+00   0.000e+00  -144.867  -145.019    -0.151     (0)  
   S6-2            0.000e+00   0.000e+00  -144.933  -145.071    -0.138     (0)  
   S-2             0.000e+00   0.000e+00  -147.935  -148.108    -0.172     (0)  
   S3-2            0.000e+00   0.000e+00  -148.313  -148.472    -0.159     (0)  
   S2-2            0.000e+00   0.000e+00  -149.552  -149.718    -0.165     (0)  
   AsS(OH)(HS)-    0.000e+00   0.000e+00  -309.840  -309.883    -0.043     (0)  
   As3S4(HS)2-     0.000e+00   0.000e+00  -925.498  -925.541    -0.043     (0)  
S(6)          2.351e-04
   SO4-2           1.811e-04   1.216e-04    -3.742    -3.915    -0.173     (0)  
   CaSO4           2.792e-05   2.798e-05    -4.554    -4.553     0.001     (0)  
   MgSO4           2.604e-05   2.610e-05    -4.584    -4.583     0.001     (0)  
   NaSO4-          7.444e-08   6.748e-08    -7.128    -7.171    -0.043     (0)  
   HSO4-           1.178e-09   1.065e-09    -8.929    -8.973    -0.044     (0)  
   CaHSO4+         1.634e-11   1.476e-11   -10.787   -10.831    -0.044     (0)  

------------------------------Saturation indices-------------------------------

  Phase               SI** log IAP   log K(298 K,   1 atm)

  Anhydrite        -2.49     -6.85   -4.36  CaSO4
  Aragonite        -0.16     -8.49   -8.34  CaCO3
  Arsenolite      -71.43    -72.81   -1.38  As2O3
  Artinite         -7.14      2.46    9.60  MgCO3:Mg(OH)2:3H2O
  As2O5(cr)       -37.25    -29.02    8.23  As2O5
  As2S3(am)      -475.75   -520.65  -44.90  As2S3
  As_native       -85.74    -98.27  -12.53  As
  Brucite          -5.79     11.05   16.84  Mg(OH)2
  Ca3(AsO4)2:4w   -18.88    -37.78  -18.91  Ca3(AsO4)2:4H2O
  Calcite          -0.02     -8.49   -8.48  CaCO3
  CH4(g)         -140.69   -143.55   -2.86  CH4
  Claudetite      -71.47    -72.81   -1.34  As2O3
  CO2(g)           -1.50     -2.97   -1.47  CO2
  Dolomite          0.00    -17.09  -17.09  CaMg(CO3)2
  Dolomite(d)      -0.55    -17.09  -16.54  CaMg(CO3)2
  Epsomite         -4.81     -6.95   -2.14  MgSO4:7H2O
  Gypsum           -2.27     -6.85   -4.58  CaSO4:2H2O
  H2(g)           -41.24    -44.39   -3.15  H2
  H2O(g)           -1.51     -0.00    1.51  H2O
  H2S(g)         -141.34   -142.34   -1.00  H2S
  Halite           -9.46     -7.87    1.58  NaCl
  Huntite          -4.31    -34.28  -29.97  CaMg3(CO3)4
  Hydromagnesite  -14.57    -23.33   -8.76  Mg5(CO3)4(OH)2:4H2O
  Magnesite        -0.57     -8.60   -8.03  MgCO3
  Mirabilite      -10.71    -11.83   -1.11  Na2SO4:10H2O
  Nahcolite        -5.68     -6.23   -0.55  NaHCO3
  Natron          -12.16    -13.47   -1.31  Na2CO3:10H2O
  Nesquehonite     -2.97     -8.60   -5.62  MgCO3:3H2O
  O2(g)            -0.70     -3.59   -2.89  O2
  Orpiment       -474.35   -520.65  -46.30  As2S3
  Portlandite     -11.65     11.15   22.80  Ca(OH)2
  Realgar        -186.36   -206.31  -19.94  AsS
  Sulfur         -105.93   -120.95  -15.03  S
  Thenardite      -11.65    -11.83   -0.18  Na2SO4
  Thermonatrite   -13.59    -13.47    0.12  Na2CO3:H2O
  Trona           -18.90    -19.70   -0.80  NaHCO3:Na2CO3:2H2O

**For a gas, SI = log10(fugacity). Fugacity = pressure * phi / 1 atm.
  For ideal gases, phi = 1.

Beginning of advection time step 200, cumulative pore volumes 200.000000.

Cell 1.

Using solution 1.	Solution after simulation 2.
Using exchange 1.	Exchange assemblage after simulation 3.
Using surface 1.	
Using pure phase assemblage 1.	Pure-phase assemblage after simulation 3.

-------------------------------Phase assemblage--------------------------------

                                                      Moles in assemblage
Phase               SI  log IAP  log K(T, P)   Initial       Final       Delta

Calcite          -0.01    -8.49     -8.48    0.000e+00           0   0.000e+00
Dolomite          0.00   -17.09    -17.09    1.572e+00   1.572e+00   1.333e-06

------------------------------Surface composition------------------------------

Diffuse Double Layer Surface-Complexation Model

Hfo           
	  2.253e-03  Surface charge, eq
	  1.208e-02  sigma, C/m²
	  4.706e-02  psi, V
	 -1.832e+00  -F*psi/RT
	  1.601e-01  exp(-F*psi/RT)
	  6.000e+02  specific area, m²/g
	  1.800e+04  m² for   3.000e+01 g


Hfo_w         
	  7.000e-02  moles
	                                   Mole                     Log
	Species               Moles    Fraction    Molality    Molality

	Hfo_wOH           4.908e-02       0.701   4.908e-02      -1.309
	Hfo_wOH2+         1.380e-02       0.197   1.380e-02      -1.860
	Hfo_wO-           3.999e-03       0.057   4.000e-03      -2.398
	Hfo_wOHAsO4-3     1.488e-03       0.021   1.489e-03      -2.827
	Hfo_wOHSO4-2      1.436e-03       0.021   1.436e-03      -2.843
	Hfo_wSO4-         2.024e-04       0.003   2.024e-04      -3.694
	Hfo_wHAsO4-       2.634e-06       0.000   2.634e-06      -5.579
	Hfo_wH2AsO4       2.396e-08       0.000   2.396e-08      -7.621
	Hfo_wOCa+         1.006e-13       0.000   1.006e-13     -12.997
	Hfo_wOMg+         7.983e-14       0.000   7.983e-14     -13.098
	Hfo_wH2AsO3       4.956e-33       0.000   4.957e-33     -32.305

-----------------------------Exchange composition------------------------------

X                1.000e+00 mol

	                               Equiv-    Equivalent      Log 
	Species             Moles      alents      Fraction     Gamma

	CaX2              3.328e-01   6.657e-01   6.657e-01     0.000
	MgX2              1.666e-01   3.332e-01   3.332e-01     0.000
	NaX               1.059e-03   1.059e-03   1.059e-03     0.000
	HX                8.613e-06   8.613e-06   8.613e-06     0.000

-----------------------------Solution composition------------------------------

	Elements           Molality       Moles

	As                3.874e-10   3.874e-10
	C                 7.118e-03   7.118e-03
	Ca                1.828e-03   1.828e-03
	Cl                1.337e-04   1.337e-04
	Mg                1.439e-03   1.439e-03
	Na                1.228e-04   1.228e-04
	S                 2.351e-04   2.351e-04

----------------------------Description of solution----------------------------

                                       pH  =   7.046      Charge balance
                                       pe  =  13.577      Adjusted to redox equilibrium
                        Activity of water  =   1.000
                           Ionic strength  =   9.625e-03
                       Mass of water (kg)  =   9.999e-01
                 Total alkalinity (eq/kg)  =   6.053e-03
                       Total CO2 (mol/kg)  =   7.118e-03
                         Temperature (°C)  =  25.00
                  Electrical balance (eq)  =   1.551e-08
 Percent error, 100*(Cat-|An|)/(Cat+|An|)  =   0.00
                               Iterations  =  10
                                  Total H  = 1.110125e+02
                                  Total O  = 5.552494e+01

----------------------------Distribution of species----------------------------

                                               Log       Log       Log    mole V
   Species          Molality    Activity  Molality  Activity     Gamma   cm³/mol

   OH-             1.233e-07   1.112e-07    -6.909    -6.954    -0.045     (0)  
   H+              9.846e-08   9.005e-08    -7.007    -7.046    -0.039      0.00
   H2O             5.551e+01   9.998e-01     1.744    -0.000     0.000     18.07
As(3)         3.954e-37
   H3AsO3          3.920e-37   3.928e-37   -36.407   -36.406     0.001     (0)  
   H2AsO3-         3.418e-39   3.088e-39   -38.466   -38.510    -0.044     (0)  
   H4AsO3+         0.000e+00   0.000e+00   -43.712   -43.756    -0.044     (0)  
   HAsO3-2         0.000e+00   0.000e+00   -45.988   -46.165    -0.176     (0)  
   AsO3-3          0.000e+00   0.000e+00   -54.422   -54.819    -0.397     (0)  
   AsS(OH)(HS)-    0.000e+00   0.000e+00  -309.840  -309.883    -0.043     (0)  
   As3S4(HS)2-     0.000e+00   0.000e+00  -925.498  -925.541    -0.043     (0)  
As(5)         3.874e-10
   HAsO4-2         1.977e-10   1.317e-10    -9.704    -9.880    -0.176     (0)  
   H2AsO4-         1.897e-10   1.714e-10    -9.722    -9.766    -0.044     (0)  
   AsO4-3          8.164e-15   3.274e-15   -14.088   -14.485    -0.397     (0)  
   H3AsO4          3.073e-15   3.079e-15   -14.512   -14.512     0.001     (0)  
C(-4)         0.000e+00
   CH4             0.000e+00   0.000e+00  -143.555  -143.554     0.001     (0)  
C(4)          7.118e-03
   HCO3-           5.879e-03   5.330e-03    -2.231    -2.273    -0.043     (0)  
   CO2             1.077e-03   1.079e-03    -2.968    -2.967     0.001     (0)  
   CaHCO3+         8.633e-05   7.839e-05    -4.064    -4.106    -0.042     (0)  
   MgHCO3+         6.318e-05   5.705e-05    -4.199    -4.244    -0.044     (0)  
   CaCO3           5.350e-06   5.362e-06    -5.272    -5.271     0.001     (0)  
   CO3-2           4.110e-06   2.776e-06    -5.386    -5.557    -0.170     (0)  
   MgCO3           2.418e-06   2.423e-06    -5.617    -5.616     0.001     (0)  
   NaHCO3          3.310e-07   3.317e-07    -6.480    -6.479     0.001     (0)  
   NaCO3-          6.311e-09   5.721e-09    -8.200    -8.243    -0.043     (0)  
Ca            1.828e-03
   Ca+2            1.709e-03   1.153e-03    -2.767    -2.938    -0.171     (0)  
   CaHCO3+         8.633e-05   7.839e-05    -4.064    -4.106    -0.042     (0)  
   CaSO4           2.792e-05   2.799e-05    -4.554    -4.553     0.001     (0)  
   CaCO3           5.350e-06   5.362e-06    -5.272    -5.271     0.001     (0)  
   CaOH+           2.340e-09   2.125e-09    -8.631    -8.673    -0.042     (0)  
   CaHSO4+         1.634e-11   1.476e-11   -10.787   -10.831    -0.044     (0)  
Cl            1.337e-04
   Cl-             1.337e-04   1.206e-04    -3.874    -3.919    -0.045     (0)  
H(0)          0.000e+00
   H2              0.000e+00   0.000e+00   -44.395   -44.394     0.001     (0)  
Mg            1.439e-03
   Mg+2            1.347e-03   9.149e-04    -2.871    -3.039    -0.168     (0)  
   MgHCO3+         6.318e-05   5.705e-05    -4.199    -4.244    -0.044     (0)  
   MgSO4           2.603e-05   2.609e-05    -4.585    -4.584     0.001     (0)  
   MgCO3           2.418e-06   2.423e-06    -5.617    -5.616     0.001     (0)  
   MgOH+           4.057e-08   3.688e-08    -7.392    -7.433    -0.041     (0)  
Na            1.228e-04
   Na+             1.224e-04   1.107e-04    -3.912    -3.956    -0.044     (0)  
   NaHCO3          3.310e-07   3.317e-07    -6.480    -6.479     0.001     (0)  
   NaSO4-          7.444e-08   6.748e-08    -7.128    -7.171    -0.043     (0)  
   NaCO3-          6.311e-09   5.721e-09    -8.200    -8.243    -0.043     (0)  
O(0)          5.112e-04
   O2              2.556e-04   2.562e-04    -3.592    -3.591     0.001     (0)  
S(-2)         0.000e+00
   HS-             0.000e+00   0.000e+00  -142.190  -142.235    -0.045     (0)  
   H2S             0.000e+00   0.000e+00  -142.340  -142.339     0.001     (0)  
   S5-2            0.000e+00   0.000e+00  -144.640  -144.785    -0.144     (0)  
   S4-2            0.000e+00   0.000e+00  -144.867  -145.019    -0.151     (0)  
   S6-2            0.000e+00   0.000e+00  -144.933  -145.071    -0.138     (0)  
   S-2             0.000e+00   0.000e+00  -147.935  -148.108    -0.172     (0)  
   S3-2            0.000e+00   0.000e+00  -148.313  -148.472    -0.159     (0)  
   S2-2            0.000e+00   0.000e+00  -149.552  -149.718    -0.165     (0)  
   AsS(OH)(HS)-    0.000e+00   0.000e+00  -309.840  -309.883    -0.043     (0)  
   As3S4(HS)2-     0.000e+00   0.000e+00  -925.498  -925.541    -0.043     (0)  
S(6)          2.351e-04
   SO4-2           1.811e-04   1.216e-04    -3.742    -3.915    -0.173     (0)  
   CaSO4           2.792e-05   2.799e-05    -4.554    -4.553     0.001     (0)  
   MgSO4           2.603e-05   2.609e-05    -4.585    -4.584     0.001     (0)  
   NaSO4-          7.444e-08   6.748e-08    -7.128    -7.171    -0.043     (0)  
   HSO4-           1.178e-09   1.065e-09    -8.929    -8.973    -0.044     (0)  
   CaHSO4+         1.634e-11   1.476e-11   -10.787   -10.831    -0.044     (0)  

------------------------------Saturation indices-------------------------------

  Phase               SI** log IAP   log K(298 K,   1 atm)

  Anhydrite        -2.49     -6.85   -4.36  CaSO4
  Aragonite        -0.16     -8.49   -8.34  CaCO3
  Arsenolite      -71.43    -72.81   -1.38  As2O3
  Artinite         -7.14      2.46    9.60  MgCO3:Mg(OH)2:3H2O
  As2O5(cr)       -37.25    -29.02    8.23  As2O5
  As2S3(am)      -475.75   -520.65  -44.90  As2S3
  As_native       -85.74    -98.27  -12.53  As
  Brucite          -5.79     11.05   16.84  Mg(OH)2
  Ca3(AsO4)2:4w   -18.88    -37.78  -18.91  Ca3(AsO4)2:4H2O
  Calcite          -0.01     -8.49   -8.48  CaCO3
  CH4(g)         -140.69   -143.55   -2.86  CH4
  Claudetite      -71.47    -72.81   -1.34  As2O3
  CO2(g)           -1.50     -2.97   -1.47  CO2
  Dolomite          0.00    -17.09  -17.09  CaMg(CO3)2
  Dolomite(d)      -0.55    -17.09  -16.54  CaMg(CO3)2
  Epsomite         -4.81     -6.95   -2.14  MgSO4:7H2O
  Gypsum           -2.27     -6.85   -4.58  CaSO4:2H2O
  H2(g)           -41.24    -44.39   -3.15  H2
  H2O(g)           -1.51     -0.00    1.51  H2O
  H2S(g)         -141.34   -142.34   -1.00  H2S
  Halite           -9.46     -7.87    1.58  NaCl
  Huntite          -4.31    -34.28  -29.97  CaMg3(CO3)4
  Hydromagnesite  -14.57    -23.33   -8.76  Mg5(CO3)4(OH)2:4H2O
  Magnesite        -0.57     -8.60   -8.03  MgCO3
  Mirabilite      -10.71    -11.83   -1.11  Na2SO4:10H2O
  Nahcolite        -5.68     -6.23   -0.55  NaHCO3
  Natron          -12.16    -13.47   -1.31  Na2CO3:10H2O
  Nesquehonite     -2.97     -8.60   -5.62  MgCO3:3H2O
  O2(g)            -0.70     -3.59   -2.89  O2
  Orpiment       -474.35   -520.65  -46.30  As2S3
  Portlandite     -11.65     11.15   22.80  Ca(OH)2
  Realgar        -186.36   -206.31  -19.94  AsS
  Sulfur         -105.93   -120.95  -15.03  S
  Thenardite      -11.65    -11.83   -0.18  Na2SO4
  Thermonatrite   -13.59    -13.47    0.12  Na2CO3:H2O
  Trona           -18.90    -19.70   -0.80  NaHCO3:Na2CO3:2H2O

**For a gas, SI = log10(fugacity). Fugacity = pressure * phi / 1 atm.
  For ideal gases, phi = 1.

------------------
End of simulation.
------------------

------------------------------------
Reading input data for simulation 4.
------------------------------------

------------------------------
End of Run after 0.34 Seconds.
------------------------------

