WARNING: Database file from DATABASE keyword is used; command line argument ignored.
   Input file: ex10_pz
  Output file: ex10_pz.out
Database file: ../database/pitzer.dat

------------------
Reading data base.
------------------

	SOLUTION_MASTER_SPECIES
	SOLUTION_SPECIES
	PHASES
	PITZER
	EXCHANGE_MASTER_SPECIES
	EXCHANGE_SPECIES
	SURFACE_MASTER_SPECIES
	SURFACE_SPECIES
	END
------------------------------------
Reading input data for simulation 1.
------------------------------------

	DATABASE ../database/pitzer.dat
	TITLE Example 10.--Transport with equilibrium_phases, 
	   exchange, and surface reactions
	SOLUTION 1 Brine
	        pH      5.713
	        pe      4.0    # O2(g)   -0.7
	        temp    25.
	        units   mol/kgw
	        Ca      .4655
	        Mg      .1609
	        Na      5.402
	        Cl      6.642           charge
	        C       .00396
	        S       .004725
	EQUILIBRIUM_PHASES 1
	        Dolomite        0.0     1.6
	        Calcite         0.0     0.1
	EXCHANGE 1
	        equilibrate with solution 1
	        X       1.0
	SURFACE 1
	        equilibrate solution 1
	        Hfo_w           0.07    600.    30.
	END
-----
TITLE
-----

 Example 10.--Transport with equilibrium_phases, 
   exchange, and surface reactions

-------------------------------------------
Beginning of initial solution calculations.
-------------------------------------------

Initial solution 1.	Brine

-----------------------------Solution composition------------------------------

	Elements           Molality       Moles

	C                 3.960e-03   3.960e-03
	Ca                4.655e-01   4.655e-01
	Cl                6.643e+00   6.643e+00  Charge balance
	Mg                1.609e-01   1.609e-01
	Na                5.402e+00   5.402e+00
	S                 4.725e-03   4.725e-03

----------------------------Description of solution----------------------------

                                       pH  =   5.713    
                                       pe  =   4.000    
       Specific Conductance (uS/cm, 25 oC) = 494473
                          Density (g/cm3)  =   1.21489
                               Volume (L)  =   1.13873
                        Activity of water  =   0.724
                           Ionic strength  =   7.286e+00
                       Mass of water (kg)  =   1.000e+00
                 Total alkalinity (eq/kg)  =   2.575e-03
                       Total CO2 (mol/kg)  =   3.960e-03
                      Temperature (deg C)  =  25.00
                  Electrical balance (eq)  =  -1.386e-11
 Percent error, 100*(Cat-|An|)/(Cat+|An|)  =  -0.00
                               Iterations  =  24
                         Gamma iterations  =   6
                      Osmotic coefficient  =   1.41521
                         Density of water  =   0.99704
                                  Total H  = 1.110150e+02
                                  Total O  = 5.553558e+01

----------------------------Distribution of species----------------------------

                                                    MacInnes  MacInnes
                                MacInnes       Log       Log       Log    mole V
   Species          Molality    Activity  Molality  Activity     Gamma   cm3/mol

   H+              1.889e-07   1.936e-06    -6.724    -5.713     1.011      0.00
   OH-             2.524e-08   3.783e-09    -7.598    -8.422    -0.824      6.35
   H2O             5.551e+01   7.238e-01     1.744    -0.140     0.000     18.07
C(4)          3.960e-03
   HCO3-           2.517e-03   7.104e-04    -2.599    -3.148    -0.549     40.14
   CO2             1.415e-03   4.172e-03    -2.849    -2.380     0.470     29.09
   MgCO3           2.226e-05   2.226e-05    -4.652    -4.652     0.000    -17.09
   CO3-2           5.757e-06   1.680e-08    -5.240    -7.775    -2.535     10.37
Ca            4.655e-01
   Ca+2            4.655e-01   2.697e+00    -0.332     0.431     0.763    -13.78
Cl            6.643e+00
   Cl-             6.643e+00   4.254e+00     0.822     0.629    -0.194     20.27
Mg            1.609e-01
   Mg+2            1.609e-01   1.564e+00    -0.794     0.194     0.988    -17.22
   MgCO3           2.226e-05   2.226e-05    -4.652    -4.652     0.000    -17.09
   MgOH+           1.443e-06   9.073e-07    -5.841    -6.042    -0.201     (0)  
Na            5.402e+00
   Na+             5.402e+00   1.120e+01     0.733     1.049     0.317      1.78
S(6)          4.725e-03
   SO4-2           4.725e-03   1.900e-05    -2.326    -4.721    -2.396     28.14
   HSO4-           9.521e-09   3.505e-09    -8.021    -8.455    -0.434     42.17

------------------------------Saturation indices-------------------------------

	Phase               SI   log IAP   log K(298 K,   1 atm)

	Anhydrite        -0.07     -4.29   -4.22  CaSO4
	Aragonite         0.88     -7.34   -8.22  CaCO3
	Bischofite       -3.85      0.61    4.46  MgCl2:6H2O
	Bloedite         -5.36     -7.71   -2.35  Na2Mg(SO4)2:4H2O
	Brucite          -5.77    -16.65  -10.88  Mg(OH)2
	Burkeite        -10.15    -10.92   -0.77  Na6CO3(SO4)2
	Calcite           1.06     -7.34   -8.41  CaCO3
	CO2(g)           -0.92     -2.38   -1.46  CO2
	Dolomite          2.16    -14.92  -17.08  CaMg(CO3)2
	Epsomite         -3.63     -5.51   -1.88  MgSO4:7H2O
	Gaylussite       -4.30    -13.72   -9.42  CaNa2(CO3)2:5H2O
	Glauberite       -1.67     -6.91   -5.25  Na2Ca(SO4)2
	Gypsum            0.01     -4.57   -4.58  CaSO4:2H2O
	H2O(g)           -1.64     -0.14    1.50  H2O
	Halite            0.11      1.68    1.57  NaCl
	Hexahydrite      -3.73     -5.37   -1.63  MgSO4:6H2O
	Kieserite        -4.54     -4.67   -0.12  MgSO4:H2O
	Labile_S         -4.14     -9.82   -5.67  Na4Ca(SO4)3:2H2O
	Leonhardite      -4.20     -5.09   -0.89  MgSO4:4H2O
	Magnesite         0.25     -7.58   -7.83  MgCO3
	Mirabilite       -2.81     -4.03   -1.21  Na2SO4:10H2O
	Nahcolite        -1.70    -12.44  -10.74  NaHCO3
	Natron           -6.25     -7.08   -0.82  Na2CO3:10H2O
	Nesquehonite     -2.83     -8.00   -5.17  MgCO3:3H2O
	Pentahydrite     -3.94     -5.23   -1.28  MgSO4:5H2O
	Pirssonite       -4.07    -13.30   -9.23  Na2Ca(CO3)2:2H2O
	Portlandite     -11.22    -16.41   -5.19  Ca(OH)2
	Thenardite       -2.27     -2.62   -0.35  Na2SO4
	Trona            -7.01    -18.40  -11.38  Na3H(CO3)2:2H2O


-------------------------------------------------------
Beginning of initial exchange-composition calculations.
-------------------------------------------------------

Exchange 1.	

X                1.000e+00 mol

	                               Equiv-    Equivalent      Log 
	Species             Moles      alents      Fraction     Gamma

	NaX               9.006e-01   9.006e-01   9.006e-01     0.317
	CaX2              4.081e-02   8.163e-02   8.163e-02     0.763
	MgX2              8.900e-03   1.780e-02   1.780e-02     0.988

------------------------------------------------------
Beginning of initial surface-composition calculations.
------------------------------------------------------

Surface 1.	

Hfo           
	  6.289e-02  Surface charge, eq
	  3.371e-01  sigma, C/m**2
	  4.759e-02  psi, V
	 -1.853e+00  -F*psi/RT
	  1.568e-01  exp(-F*psi/RT)
	  6.000e+02  specific area, m**2/g
	  1.800e+04  m**2 for   3.000e+01 g


Hfo_w         
	  7.000e-02  moles
	                                   Mole                     Log
	Species               Moles    Fraction    Molality    Molality

	Hfo_wOH2+         3.971e-02       0.567   3.971e-02      -1.401
	Hfo_wOMg+         2.133e-02       0.305   2.133e-02      -1.671
	Hfo_wOH           6.705e-03       0.096   6.705e-03      -2.174
	Hfo_wOCa+         2.069e-03       0.030   2.069e-03      -2.684
	Hfo_wSO4-         1.310e-04       0.002   1.310e-04      -3.883
	Hfo_wOHSO4-2      3.194e-05       0.000   3.194e-05      -4.496
	Hfo_wO-           2.594e-05       0.000   2.594e-05      -4.586

-----------------------------------------
Beginning of batch-reaction calculations.
-----------------------------------------

Reaction step 1.

Using solution 1.	Brine
Using exchange 1.	Exchange assemblage after simulation 1.
Using surface 1.	
Using pure phase assemblage 1.	

-------------------------------Phase assemblage--------------------------------

                                                      Moles in assemblage
Phase               SI  log IAP  log K(T, P)   Initial       Final       Delta

Calcite           0.00    -8.41     -8.41    1.000e-01   7.862e-02  -2.138e-02
Dolomite          0.00   -17.08    -17.08    1.600e+00   1.612e+00   1.249e-02

------------------------------Surface composition------------------------------

Hfo           
	  6.286e-02  Surface charge, eq
	  3.370e-01  sigma, C/m**2
	  4.759e-02  psi, V
	 -1.852e+00  -F*psi/RT
	  1.569e-01  exp(-F*psi/RT)
	  6.000e+02  specific area, m**2/g
	  1.800e+04  m**2 for   3.000e+01 g


Hfo_w         
	  7.000e-02  moles
	                                   Mole                     Log
	Species               Moles    Fraction    Molality    Molality

	Hfo_wOH2+         4.211e-02       0.602   4.212e-02      -1.376
	Hfo_wOMg+         1.898e-02       0.271   1.898e-02      -1.722
	Hfo_wOH           6.723e-03       0.096   6.724e-03      -2.172
	Hfo_wOCa+         1.990e-03       0.028   1.990e-03      -2.701
	Hfo_wSO4-         1.382e-04       0.002   1.382e-04      -3.859
	Hfo_wOHSO4-2      3.188e-05       0.000   3.188e-05      -4.497
	Hfo_wO-           2.459e-05       0.000   2.459e-05      -4.609

-----------------------------Exchange composition------------------------------

X                1.000e+00 mol

	                               Equiv-    Equivalent      Log 
	Species             Moles      alents      Fraction     Gamma

	NaX               9.003e-01   9.003e-01   9.003e-01     0.316
	CaX2              4.151e-02   8.301e-02   8.301e-02     0.761
	MgX2              8.363e-03   1.673e-02   1.673e-02     0.986

-----------------------------Solution composition------------------------------

	Elements           Molality       Moles

	C                 3.625e-04   3.625e-04
	Ca                4.738e-01   4.738e-01
	Cl                6.643e+00   6.643e+00
	Mg                1.513e-01   1.513e-01
	Na                5.402e+00   5.402e+00
	S                 4.718e-03   4.718e-03

----------------------------Description of solution----------------------------

                                       pH  =   5.689      Charge balance
                                       pe  =   4.000      Adjusted to redox equilibrium
       Specific Conductance (uS/cm, 25 oC) = 494456
                          Density (g/cm3)  =   1.21489
                               Volume (L)  =   1.13849
                        Activity of water  =   0.724
                           Ionic strength  =   7.282e+00
                       Mass of water (kg)  =   1.000e+00
                 Total alkalinity (eq/kg)  =   2.307e-04
                       Total CO2 (mol/kg)  =   3.625e-04
                      Temperature (deg C)  =  25.00
                  Electrical balance (eq)  =   2.986e-05
 Percent error, 100*(Cat-|An|)/(Cat+|An|)  =   0.00
                               Iterations  =  20
                         Gamma iterations  =   4
                      Osmotic coefficient  =   1.41471
                         Density of water  =   0.99704
                                  Total H  = 1.110101e+02
                                  Total O  = 5.552477e+01

----------------------------Distribution of species----------------------------

                                                    MacInnes  MacInnes
                                MacInnes       Log       Log       Log    mole V
   Species          Molality    Activity  Molality  Activity     Gamma   cm3/mol

   H+              2.000e-07   2.048e-06    -6.699    -5.689     1.010      0.00
   OH-             2.396e-08   3.578e-09    -7.621    -8.446    -0.826      6.35
   H2O             5.551e+01   7.239e-01     1.744    -0.140     0.000     18.07
C(4)          3.625e-04
   HCO3-           2.251e-04   6.418e-05    -3.648    -4.193    -0.545     40.14
   CO2             1.352e-04   3.985e-04    -3.869    -3.400     0.470     29.09
   MgCO3           1.784e-06   1.784e-06    -5.749    -5.749     0.000    -17.09
   CO3-2           4.900e-07   1.435e-09    -6.310    -8.843    -2.533     10.37
Ca            4.738e-01
   Ca+2            4.738e-01   2.734e+00    -0.324     0.437     0.761    -13.78
Cl            6.643e+00
   Cl-             6.643e+00   4.254e+00     0.822     0.629    -0.194     20.27
Mg            1.513e-01
   Mg+2            1.513e-01   1.467e+00    -0.820     0.166     0.986    -17.22
   MgCO3           1.784e-06   1.784e-06    -5.749    -5.749     0.000    -17.09
   MgOH+           1.283e-06   8.049e-07    -5.892    -6.094    -0.202     (0)  
Na            5.402e+00
   Na+             5.402e+00   1.120e+01     0.733     1.049     0.316      1.78
S(6)          4.718e-03
   SO4-2           4.718e-03   1.893e-05    -2.326    -4.723    -2.397     28.14
   HSO4-           1.006e-08   3.692e-09    -7.997    -8.433    -0.435     42.17

------------------------------Saturation indices-------------------------------

	Phase               SI   log IAP   log K(298 K,   1 atm)

	Anhydrite        -0.06     -4.29   -4.22  CaSO4
	Aragonite        -0.19     -8.41   -8.22  CaCO3
	Bischofite       -3.87      0.58    4.46  MgCl2:6H2O
	Bloedite         -5.40     -7.74   -2.35  Na2Mg(SO4)2:4H2O
	Brucite          -5.85    -16.73  -10.88  Mg(OH)2
	Burkeite        -11.22    -11.99   -0.77  Na6CO3(SO4)2
	Calcite           0.00     -8.41   -8.41  CaCO3
	CO2(g)           -1.94     -3.40   -1.46  CO2
	Dolomite          0.00    -17.08  -17.08  CaMg(CO3)2
	Epsomite         -3.66     -5.54   -1.88  MgSO4:7H2O
	Gaylussite       -6.43    -15.85   -9.42  CaNa2(CO3)2:5H2O
	Glauberite       -1.67     -6.91   -5.25  Na2Ca(SO4)2
	Gypsum            0.01     -4.57   -4.58  CaSO4:2H2O
	H2O(g)           -1.64     -0.14    1.50  H2O
	Halite            0.11      1.68    1.57  NaCl
	Hexahydrite      -3.76     -5.40   -1.63  MgSO4:6H2O
	Kieserite        -4.57     -4.70   -0.12  MgSO4:H2O
	Labile_S         -4.14     -9.82   -5.67  Na4Ca(SO4)3:2H2O
	Leonhardite      -4.23     -5.12   -0.89  MgSO4:4H2O
	Magnesite        -0.84     -8.68   -7.83  MgCO3
	Mirabilite       -2.81     -4.03   -1.21  Na2SO4:10H2O
	Nahcolite        -2.74    -13.48  -10.74  NaHCO3
	Natron           -7.32     -8.15   -0.82  Na2CO3:10H2O
	Nesquehonite     -3.93     -9.10   -5.17  MgCO3:3H2O
	Pentahydrite     -3.97     -5.26   -1.28  MgSO4:5H2O
	Pirssonite       -6.20    -15.43   -9.23  Na2Ca(CO3)2:2H2O
	Portlandite     -11.27    -16.46   -5.19  Ca(OH)2
	Thenardite       -2.27     -2.62   -0.35  Na2SO4
	Trona            -9.12    -20.51  -11.38  Na3H(CO3)2:2H2O


------------------
End of simulation.
------------------

------------------------------------
Reading input data for simulation 2.
------------------------------------

	SOLUTION 0 20 x precipitation
	        pH      4.6
	        pe      4.0     # O2(g)   -0.7
	        temp    25.
	        units   mmol/kgw
	        Ca      .191625
	        Mg      .035797
	        Na      .122668
	        Cl      .133704
	        C       .01096
	        S       .235153         charge
	EQUILIBRIUM_PHASES 0
	        Dolomite        0.0     1.6
	        Calcite         0.0     0.1
	        CO2(g)          -1.5    10.
	SAVE solution 0
	END
-------------------------------------------
Beginning of initial solution calculations.
-------------------------------------------

Initial solution 0.	20 x precipitation

-----------------------------Solution composition------------------------------

	Elements           Molality       Moles

	C                 1.096e-05   1.096e-05
	Ca                1.916e-04   1.916e-04
	Cl                1.337e-04   1.337e-04
	Mg                3.580e-05   3.580e-05
	Na                1.227e-04   1.227e-04
	S                 2.351e-04   2.351e-04  Charge balance

----------------------------Description of solution----------------------------

                                       pH  =   4.600    
                                       pe  =   4.000    
       Specific Conductance (uS/cm, 25 oC) = 84
                          Density (g/cm3)  =   0.99708
                               Volume (L)  =   1.00298
                        Activity of water  =   1.000
                           Ionic strength  =   1.066e-03
                       Mass of water (kg)  =   1.000e+00
                 Total alkalinity (eq/kg)  =  -2.639e-05
                       Total CO2 (mol/kg)  =   1.096e-05
                      Temperature (deg C)  =  25.00
                  Electrical balance (eq)  =   5.857e-14
 Percent error, 100*(Cat-|An|)/(Cat+|An|)  =   0.00
                               Iterations  =  11
                         Gamma iterations  =   3
                      Osmotic coefficient  =   0.96082
                         Density of water  =   0.99704
                                  Total H  = 1.110125e+02
                                  Total O  = 5.550718e+01

----------------------------Distribution of species----------------------------

                                                    MacInnes  MacInnes
                                MacInnes       Log       Log       Log    mole V
   Species          Molality    Activity  Molality  Activity     Gamma   cm3/mol

   H+              2.610e-05   2.512e-05    -4.583    -4.600    -0.017      0.00
   OH-             4.192e-10   4.029e-10    -9.378    -9.395    -0.017     -4.11
   H2O             5.551e+01   1.000e+00     1.744    -0.000     0.000     18.07
C(4)          1.096e-05
   CO2             1.076e-05   1.076e-05    -4.968    -4.968     0.000     29.09
   HCO3-           2.024e-07   1.951e-07    -6.694    -6.710    -0.016     24.74
   CO3-2           4.125e-13   3.557e-13   -12.385   -12.449    -0.064     -3.66
   MgCO3           9.185e-15   9.185e-15   -14.037   -14.037     0.000    -17.09
Ca            1.916e-04
   Ca+2            1.916e-04   1.621e-04    -3.718    -3.790    -0.073    -18.14
Cl            1.337e-04
   Cl-             1.337e-04   1.289e-04    -3.874    -3.890    -0.016     18.08
Mg            3.580e-05
   Mg+2            3.580e-05   3.047e-05    -4.446    -4.516    -0.070    -21.82
   MgOH+           1.956e-12   1.883e-12   -11.709   -11.725    -0.016     (0)  
   MgCO3           9.185e-15   9.185e-15   -14.037   -14.037     0.000    -17.09
Na            1.227e-04
   Na+             1.227e-04   1.181e-04    -3.911    -3.928    -0.016     -1.39
S(6)          2.351e-04
   SO4-2           2.346e-04   1.989e-04    -3.630    -3.701    -0.072     14.00
   HSO4-           4.938e-07   4.761e-07    -6.306    -6.322    -0.016     40.28

------------------------------Saturation indices-------------------------------

	Phase               SI   log IAP   log K(298 K,   1 atm)

	Anhydrite        -3.27     -7.49   -4.22  CaSO4
	Aragonite        -8.02    -16.24   -8.22  CaCO3
	Bischofite      -16.75    -12.30    4.46  MgCl2:6H2O
	Bloedite        -17.43    -19.77   -2.35  Na2Mg(SO4)2:4H2O
	Brucite         -12.43    -23.31  -10.88  Mg(OH)2
	Burkeite        -42.65    -43.42   -0.77  Na6CO3(SO4)2
	Calcite          -7.83    -16.24   -8.41  CaCO3
	CO2(g)           -3.51     -4.97   -1.46  CO2
	Dolomite        -16.12    -33.20  -17.08  CaMg(CO3)2
	Epsomite         -6.34     -8.22   -1.88  MgSO4:7H2O
	Gaylussite      -27.12    -36.54   -9.42  CaNa2(CO3)2:5H2O
	Glauberite      -13.80    -19.05   -5.25  Na2Ca(SO4)2
	Gypsum           -2.91     -7.49   -4.58  CaSO4:2H2O
	H2O(g)           -1.50     -0.00    1.50  H2O
	Halite           -9.39     -7.82    1.57  NaCl
	Hexahydrite      -6.58     -8.22   -1.63  MgSO4:6H2O
	Kieserite        -8.09     -8.22   -0.12  MgSO4:H2O
	Labile_S        -24.93    -30.60   -5.67  Na4Ca(SO4)3:2H2O
	Leonhardite      -7.33     -8.22   -0.89  MgSO4:4H2O
	Magnesite        -9.13    -16.97   -7.83  MgCO3
	Mirabilite      -10.34    -11.56   -1.21  Na2SO4:10H2O
	Nahcolite       -10.23    -20.98  -10.74  NaHCO3
	Natron          -19.48    -20.30   -0.82  Na2CO3:10H2O
	Nesquehonite    -11.80    -16.97   -5.17  MgCO3:3H2O
	Pentahydrite     -6.93     -8.22   -1.28  MgSO4:5H2O
	Pirssonite      -27.31    -36.54   -9.23  Na2Ca(CO3)2:2H2O
	Portlandite     -17.39    -22.58   -5.19  Ca(OH)2
	Thenardite      -11.21    -11.56   -0.35  Na2SO4
	Trona           -29.90    -41.28  -11.38  Na3H(CO3)2:2H2O


-----------------------------------------
Beginning of batch-reaction calculations.
-----------------------------------------

Reaction step 1.

Using solution 0.	20 x precipitation
Using pure phase assemblage 0.	

-------------------------------Phase assemblage--------------------------------

                                                      Moles in assemblage
Phase               SI  log IAP  log K(T, P)   Initial       Final       Delta

CO2(g)           -1.50    -2.96     -1.46    1.000e+01   9.996e+00  -4.100e-03
Calcite           0.00    -8.41     -8.41    1.000e-01   9.920e-02  -7.985e-04
Dolomite          0.00   -17.08    -17.08    1.600e+00   1.599e+00  -1.127e-03

-----------------------------Solution composition------------------------------

	Elements           Molality       Moles

	C                 7.164e-03   7.164e-03
	Ca                2.117e-03   2.117e-03
	Cl                1.337e-04   1.337e-04
	Mg                1.163e-03   1.163e-03
	Na                1.227e-04   1.227e-04
	S                 2.351e-04   2.351e-04

----------------------------Description of solution----------------------------

                                       pH  =   7.041      Charge balance
                                       pe  =   4.000      Adjusted to redox equilibrium
       Specific Conductance (uS/cm, 25 oC) = 614
                          Density (g/cm3)  =   0.99748
                               Volume (L)  =   1.00340
                        Activity of water  =   1.000
                           Ionic strength  =   1.020e-02
                       Mass of water (kg)  =   9.999e-01
                 Total alkalinity (eq/kg)  =   6.079e-03
                       Total CO2 (mol/kg)  =   7.164e-03
                      Temperature (deg C)  =  25.00
                  Electrical balance (eq)  =   1.047e-13
 Percent error, 100*(Cat-|An|)/(Cat+|An|)  =   0.00
                               Iterations  =  13
                         Gamma iterations  =   3
                      Osmotic coefficient  =   0.94033
                         Density of water  =   0.99704
                                  Total H  = 1.110125e+02
                                  Total O  = 5.552454e+01

----------------------------Distribution of species----------------------------

                                                    MacInnes  MacInnes
                                MacInnes       Log       Log       Log    mole V
   Species          Molality    Activity  Molality  Activity     Gamma   cm3/mol

   OH-             1.268e-07   1.113e-07    -6.897    -6.953    -0.057     -4.03
   H+              1.013e-07   9.091e-08    -6.994    -7.041    -0.047      0.00
   H2O             5.551e+01   9.998e-01     1.744    -0.000     0.000     18.07
C(4)          7.164e-03
   HCO3-           6.067e-03   5.475e-03    -2.217    -2.262    -0.045     24.83
   CO2             1.091e-03   1.093e-03    -2.962    -2.961     0.001     29.09
   CO3-2           4.394e-06   2.757e-06    -5.357    -5.560    -0.202     -3.40
   MgCO3           1.784e-06   1.784e-06    -5.749    -5.749     0.000    -17.09
Ca            2.117e-03
   Ca+2            2.117e-03   1.423e-03    -2.674    -2.847    -0.173    -17.92
Cl            1.337e-04
   Cl-             1.337e-04   1.203e-04    -3.874    -3.920    -0.046     18.14
Mg            1.163e-03
   Mg+2            1.161e-03   7.634e-04    -2.935    -3.117    -0.182    -21.61
   MgCO3           1.784e-06   1.784e-06    -5.749    -5.749     0.000    -17.09
   MgOH+           1.453e-08   1.303e-08    -7.838    -7.885    -0.047     (0)  
Na            1.227e-04
   Na+             1.227e-04   1.102e-04    -3.911    -3.958    -0.047     -1.31
S(6)          2.351e-04
   SO4-2           2.351e-04   1.301e-04    -3.629    -3.886    -0.257     14.42
   HSO4-           1.249e-09   1.127e-09    -8.904    -8.948    -0.044     40.34

------------------------------Saturation indices-------------------------------

	Phase               SI   log IAP   log K(298 K,   1 atm)

	Anhydrite        -2.51     -6.73   -4.22  CaSO4
	Aragonite        -0.19     -8.41   -8.22  CaCO3
	Bischofite      -15.41    -10.96    4.46  MgCl2:6H2O
	Bloedite        -16.46    -18.80   -2.35  Na2Mg(SO4)2:4H2O
	Brucite          -6.14    -17.02  -10.88  Mg(OH)2
	Burkeite        -36.31    -37.08   -0.77  Na6CO3(SO4)2
	Calcite           0.00     -8.41   -8.41  CaCO3
	CO2(g)           -1.50     -2.96   -1.46  CO2	 Pressure   0.0 atm, phi 1.000.
	Dolomite          0.00    -17.08  -17.08  CaMg(CO3)2
	Epsomite         -5.12     -7.00   -1.88  MgSO4:7H2O
	Gaylussite      -12.46    -21.88   -9.42  CaNa2(CO3)2:5H2O
	Glauberite      -13.29    -18.53   -5.25  Na2Ca(SO4)2
	Gypsum           -2.15     -6.73   -4.58  CaSO4:2H2O
	H2O(g)           -1.50     -0.00    1.50  H2O
	Halite           -9.45     -7.88    1.57  NaCl
	Hexahydrite      -5.37     -7.00   -1.63  MgSO4:6H2O
	Kieserite        -6.88     -7.00   -0.12  MgSO4:H2O
	Labile_S        -24.66    -30.33   -5.67  Na4Ca(SO4)3:2H2O
	Leonhardite      -6.12     -7.00   -0.89  MgSO4:4H2O
	Magnesite        -0.84     -8.68   -7.83  MgCO3
	Mirabilite      -10.59    -11.80   -1.21  Na2SO4:10H2O
	Nahcolite        -5.82    -16.56  -10.74  NaHCO3
	Natron          -12.65    -13.48   -0.82  Na2CO3:10H2O
	Nesquehonite     -3.51     -8.68   -5.17  MgCO3:3H2O
	Pentahydrite     -5.72     -7.00   -1.28  MgSO4:5H2O
	Pirssonite      -12.65    -21.88   -9.23  Na2Ca(CO3)2:2H2O
	Portlandite     -11.56    -16.75   -5.19  Ca(OH)2
	Thenardite      -11.45    -11.80   -0.35  Na2SO4
	Trona           -18.65    -30.03  -11.38  Na3H(CO3)2:2H2O


------------------
End of simulation.
------------------

------------------------------------
Reading input data for simulation 3.
------------------------------------

	SURFACE_SPECIES
	        Hfo_wOH + Mg+2 = Hfo_wOMg+ + H+
	        log_k -15.
	        Hfo_wOH + Ca+2 = Hfo_wOCa+ + H+
	        log_k -15.
	PRINT
		status false
	ADVECTION
	        cells 1
	        shifts 200
	SELECTED_OUTPUT
	        file ex10_pz.pun
	        totals Ca Mg Na Cl C S # As
	END
------------------------------------
Beginning of advection calculations.
------------------------------------

Beginning of advection time step 1, cumulative pore volumes 1.000000.

Cell 1.

Using solution 1.	Solution after simulation 2.
Using exchange 1.	Exchange assemblage after simulation 1.
Using surface 1.	
Using pure phase assemblage 1.	

-------------------------------Phase assemblage--------------------------------

                                                      Moles in assemblage
Phase               SI  log IAP  log K(T, P)   Initial       Final       Delta

Calcite           0.00    -8.41     -8.41    1.000e-01   7.125e-02  -2.875e-02
Dolomite          0.00   -17.08    -17.08    1.600e+00   1.607e+00   6.965e-03

------------------------------Surface composition------------------------------

Hfo           
	  1.821e-03  Surface charge, eq
	  9.760e-03  sigma, C/m**2
	  1.814e-02  psi, V
	 -7.061e-01  -F*psi/RT
	  4.936e-01  exp(-F*psi/RT)
	  6.000e+02  specific area, m**2/g
	  1.800e+04  m**2 for   3.000e+01 g


Hfo_w         
	  7.000e-02  moles
	                                   Mole                     Log
	Species               Moles    Fraction    Molality    Molality

	Hfo_wOH           5.351e-02       0.764   5.352e-02      -1.272
	Hfo_wOH2+         9.225e-03       0.132   9.225e-03      -2.035
	Hfo_wO-           7.111e-03       0.102   7.112e-03      -2.148
	Hfo_wOHSO4-2      1.403e-04       0.002   1.403e-04      -3.853
	Hfo_wSO4-         1.214e-05       0.000   1.214e-05      -4.916
	Hfo_wOCa+         1.363e-13       0.000   1.363e-13     -12.865
	Hfo_wOMg+         7.312e-14       0.000   7.313e-14     -13.136

-----------------------------Exchange composition------------------------------

X                1.000e+00 mol

	                               Equiv-    Equivalent      Log 
	Species             Moles      alents      Fraction     Gamma

	NaX               8.182e-01   8.182e-01   8.182e-01    -0.087
	CaX2              6.658e-02   1.332e-01   1.332e-01    -0.365
	MgX2              2.430e-02   4.861e-02   4.861e-02    -0.398

-----------------------------Solution composition------------------------------

	Elements           Molality       Moles

	C                 2.199e-02   2.199e-02
	Ca                2.143e-04   2.143e-04
	Cl                1.337e-04   1.337e-04
	Mg                1.258e-04   1.258e-04
	Na                8.246e-02   8.245e-02
	S                 2.456e-04   2.456e-04

----------------------------Description of solution----------------------------

                                       pH  =   7.747      Charge balance
                                       pe  =   4.000      Adjusted to redox equilibrium
       Specific Conductance (uS/cm, 25 oC) = 4535
                          Density (g/cm3)  =   0.99985
                               Volume (L)  =   1.00445
                        Activity of water  =   0.998
                           Ionic strength  =   5.328e-02
                       Mass of water (kg)  =   9.999e-01
                 Total alkalinity (eq/kg)  =   2.144e-02
                       Total CO2 (mol/kg)  =   2.199e-02
                      Temperature (deg C)  =  25.00
                  Electrical balance (eq)  =   6.106e-02
 Percent error, 100*(Cat-|An|)/(Cat+|An|)  =  58.05
                               Iterations  =  23
                         Gamma iterations  =   5
                      Osmotic coefficient  =   0.93060
                         Density of water  =   0.99704
                                  Total H  = 1.110265e+02
                                  Total O  = 5.556893e+01

----------------------------Distribution of species----------------------------

                                                    MacInnes  MacInnes
                                MacInnes       Log       Log       Log    mole V
   Species          Molality    Activity  Molality  Activity     Gamma   cm3/mol

   OH-             6.979e-07   5.641e-07    -6.156    -6.249    -0.092     -3.86
   H+              2.185e-08   1.791e-08    -7.661    -7.747    -0.086      0.00
   H2O             5.551e+01   9.982e-01     1.744    -0.001     0.000     18.07
C(4)          2.199e-02
   HCO3-           2.125e-02   1.661e-02    -1.673    -1.780    -0.107     25.02
   CO2             6.448e-04   6.541e-04    -3.191    -3.184     0.006     29.09
   CO3-2           9.679e-05   4.245e-05    -4.014    -4.372    -0.358     -2.89
   MgCO3           1.784e-06   1.784e-06    -5.749    -5.749     0.000    -17.09
Ca            2.143e-04
   Ca+2            2.143e-04   9.245e-05    -3.669    -4.034    -0.365    -17.60
Cl            1.337e-04
   Cl-             1.337e-04   1.084e-04    -3.874    -3.965    -0.091     18.26
Mg            1.258e-04
   Mg+2            1.240e-04   4.959e-05    -3.907    -4.305    -0.398    -21.30
   MgCO3           1.784e-06   1.784e-06    -5.749    -5.749     0.000    -17.09
   MgOH+           5.263e-09   4.290e-09    -8.279    -8.368    -0.089     (0)  
Na            8.246e-02
   Na+             8.246e-02   6.741e-02    -1.084    -1.171    -0.087     -1.18
S(6)          2.456e-04
   SO4-2           2.456e-04   1.036e-04    -3.610    -3.985    -0.375     15.17
   HSO4-           2.158e-10   1.767e-10    -9.666    -9.753    -0.087     40.46

------------------------------Saturation indices-------------------------------

	Phase               SI   log IAP   log K(298 K,   1 atm)

	Anhydrite        -3.79     -8.02   -4.22  CaSO4
	Aragonite        -0.19     -8.41   -8.22  CaCO3
	Bischofite      -16.69    -12.24    4.46  MgCl2:6H2O
	Bloedite        -12.27    -14.62   -2.35  Na2Mg(SO4)2:4H2O
	Brucite          -5.92    -16.80  -10.88  Mg(OH)2
	Burkeite        -18.60    -19.37   -0.77  Na6CO3(SO4)2
	Calcite           0.00     -8.41   -8.41  CaCO3
	CO2(g)           -1.72     -3.18   -1.46  CO2
	Dolomite          0.00    -17.08  -17.08  CaMg(CO3)2
	Epsomite         -6.41     -8.29   -1.88  MgSO4:7H2O
	Gaylussite       -5.70    -15.12   -9.42  CaNa2(CO3)2:5H2O
	Glauberite       -9.10    -14.35   -5.25  Na2Ca(SO4)2
	Gypsum           -3.44     -8.02   -4.58  CaSO4:2H2O
	H2O(g)           -1.50     -0.00    1.50  H2O
	Halite           -6.71     -5.14    1.57  NaCl
	Hexahydrite      -6.66     -8.29   -1.63  MgSO4:6H2O
	Kieserite        -8.17     -8.29   -0.12  MgSO4:H2O
	Labile_S        -15.00    -20.68   -5.67  Na4Ca(SO4)3:2H2O
	Leonhardite      -7.41     -8.29   -0.89  MgSO4:4H2O
	Magnesite        -0.84     -8.68   -7.83  MgCO3
	Mirabilite       -5.12     -6.33   -1.21  Na2SO4:10H2O
	Nahcolite        -2.55    -13.29  -10.74  NaHCO3
	Natron           -5.90     -6.72   -0.82  Na2CO3:10H2O
	Nesquehonite     -3.51     -8.68   -5.17  MgCO3:3H2O
	Pentahydrite     -7.01     -8.29   -1.28  MgSO4:5H2O
	Pirssonite       -5.89    -15.12   -9.23  Na2Ca(CO3)2:2H2O
	Portlandite     -11.34    -16.53   -5.19  Ca(OH)2
	Thenardite       -5.98     -6.33   -0.35  Na2SO4
	Trona            -8.62    -20.01  -11.38  Na3H(CO3)2:2H2O


Beginning of advection time step 2, cumulative pore volumes 2.000000.

Cell 1.

Using solution 1.	Solution after simulation 2.
Using exchange 1.	Exchange assemblage after simulation 3.
Using surface 1.	
Using pure phase assemblage 1.	Pure-phase assemblage after simulation 3.

-------------------------------Phase assemblage--------------------------------

                                                      Moles in assemblage
Phase               SI  log IAP  log K(T, P)   Initial       Final       Delta

Calcite           0.00    -8.41     -8.41    7.125e-02   6.644e-02  -4.804e-03
Dolomite          0.00   -17.08    -17.08    1.607e+00   1.606e+00  -1.036e-03

------------------------------Surface composition------------------------------

Hfo           
	 -2.909e-03  Surface charge, eq
	 -1.560e-02  sigma, C/m**2
	 -4.375e-02  psi, V
	  1.703e+00  -F*psi/RT
	  5.489e+00  exp(-F*psi/RT)
	  6.000e+02  specific area, m**2/g
	  1.800e+04  m**2 for   3.000e+01 g


Hfo_w         
	  7.000e-02  moles
	                                   Mole                     Log
	Species               Moles    Fraction    Molality    Molality

	Hfo_wOH           5.353e-02       0.765   5.354e-02      -1.271
	Hfo_wO-           9.684e-03       0.138   9.685e-03      -2.014
	Hfo_wOH2+         6.780e-03       0.097   6.780e-03      -2.169
	Hfo_wOHSO4-2      2.366e-06       0.000   2.366e-06      -5.626
	Hfo_wSO4-         1.503e-07       0.000   1.503e-07      -6.823
	Hfo_wOCa+         2.210e-12       0.000   2.210e-12     -11.656
	Hfo_wOMg+         1.186e-12       0.000   1.186e-12     -11.926

-----------------------------Exchange composition------------------------------

X                1.000e+00 mol

	                               Equiv-    Equivalent      Log 
	Species             Moles      alents      Fraction     Gamma

	NaX               7.980e-01   7.980e-01   7.980e-01    -0.061
	CaX2              7.452e-02   1.490e-01   1.490e-01    -0.239
	MgX2              2.649e-02   5.298e-02   5.298e-02    -0.260

-----------------------------Solution composition------------------------------

	Elements           Molality       Moles

	C                 1.404e-02   1.404e-02
	Ca                1.541e-05   1.541e-05
	Cl                1.337e-04   1.337e-04
	Mg                1.047e-05   1.047e-05
	Na                2.038e-02   2.038e-02
	S                 3.850e-04   3.850e-04

----------------------------Description of solution----------------------------

                                       pH  =   8.927      Charge balance
                                       pe  =   4.000      Adjusted to redox equilibrium
       Specific Conductance (uS/cm, 25 oC) = 1621
                          Density (g/cm3)  =   0.99810
                               Volume (L)  =   1.00391
                        Activity of water  =   0.999
                           Ionic strength  =   1.925e-02
                       Mass of water (kg)  =   9.999e-01
                 Total alkalinity (eq/kg)  =   1.480e-02
                       Total CO2 (mol/kg)  =   1.404e-02
                      Temperature (deg C)  =  25.00
                  Electrical balance (eq)  =   4.730e-03
 Percent error, 100*(Cat-|An|)/(Cat+|An|)  =  13.09
                               Iterations  =  24
                         Gamma iterations  =   5
                      Osmotic coefficient  =   0.95055
                         Density of water  =   0.99704
                                  Total H  = 1.110175e+02
                                  Total O  = 5.554575e+01

----------------------------Distribution of species----------------------------

                                                    MacInnes  MacInnes
                                MacInnes       Log       Log       Log    mole V
   Species          Molality    Activity  Molality  Activity     Gamma   cm3/mol

   OH-             9.832e-06   8.550e-06    -5.007    -5.068    -0.061     -3.99
   H+              1.365e-09   1.183e-09    -8.865    -8.927    -0.062      0.00
   H2O             5.551e+01   9.994e-01     1.744    -0.000     0.000     18.07
C(4)          1.404e-02
   HCO3-           1.323e-02   1.140e-02    -1.878    -1.943    -0.065     24.88
   CO3-2           7.785e-04   4.410e-04    -3.109    -3.356    -0.247     -3.25
   CO2             2.951e-05   2.961e-05    -4.530    -4.529     0.002     29.09
   MgCO3           1.784e-06   1.784e-06    -5.749    -5.749     0.000    -17.09
Ca            1.541e-05
   Ca+2            1.541e-05   8.899e-06    -4.812    -5.051    -0.239    -17.82
Cl            1.337e-04
   Cl-             1.337e-04   1.164e-04    -3.874    -3.934    -0.060     18.17
Mg            1.047e-05
   Mg+2            8.684e-06   4.773e-06    -5.061    -5.321    -0.260    -21.51
   MgCO3           1.784e-06   1.784e-06    -5.749    -5.749     0.000    -17.09
   MgOH+           7.228e-09   6.259e-09    -8.141    -8.204    -0.063     (0)  
Na            2.038e-02
   Na+             2.038e-02   1.772e-02    -1.691    -1.752    -0.061     -1.27
S(6)          3.850e-04
   SO4-2           3.850e-04   2.160e-04    -3.415    -3.666    -0.251     14.64
   HSO4-           2.791e-11   2.435e-11   -10.554   -10.614    -0.059     40.38

------------------------------Saturation indices-------------------------------

	Phase               SI   log IAP   log K(298 K,   1 atm)

	Anhydrite        -4.49     -8.72   -4.22  CaSO4
	Aragonite        -0.19     -8.41   -8.22  CaCO3
	Bischofite      -17.65    -13.19    4.46  MgCl2:6H2O
	Bloedite        -13.81    -16.16   -2.35  Na2Mg(SO4)2:4H2O
	Brucite          -4.58    -15.46  -10.88  Mg(OH)2
	Burkeite        -20.42    -21.20   -0.77  Na6CO3(SO4)2
	Calcite           0.00     -8.41   -8.41  CaCO3
	CO2(g)           -3.07     -4.53   -1.46  CO2
	Dolomite          0.00    -17.08  -17.08  CaMg(CO3)2
	Epsomite         -7.11     -8.99   -1.88  MgSO4:7H2O
	Gaylussite       -5.85    -15.27   -9.42  CaNa2(CO3)2:5H2O
	Glauberite      -10.64    -15.88   -5.25  Na2Ca(SO4)2
	Gypsum           -4.14     -8.72   -4.58  CaSO4:2H2O
	H2O(g)           -1.50     -0.00    1.50  H2O
	Halite           -7.26     -5.69    1.57  NaCl
	Hexahydrite      -7.35     -8.99   -1.63  MgSO4:6H2O
	Kieserite        -8.86     -8.99   -0.12  MgSO4:H2O
	Labile_S        -17.38    -23.05   -5.67  Na4Ca(SO4)3:2H2O
	Leonhardite      -8.10     -8.99   -0.89  MgSO4:4H2O
	Magnesite        -0.84     -8.68   -7.83  MgCO3
	Mirabilite       -5.96     -7.17   -1.21  Na2SO4:10H2O
	Nahcolite        -3.29    -14.03  -10.74  NaHCO3
	Natron           -6.04     -6.86   -0.82  Na2CO3:10H2O
	Nesquehonite     -3.51     -8.68   -5.17  MgCO3:3H2O
	Pentahydrite     -7.70     -8.99   -1.28  MgSO4:5H2O
	Pirssonite       -6.03    -15.27   -9.23  Na2Ca(CO3)2:2H2O
	Portlandite     -10.00    -15.19   -5.19  Ca(OH)2
	Thenardite       -6.82     -7.17   -0.35  Na2SO4
	Trona            -9.51    -20.89  -11.38  Na3H(CO3)2:2H2O


Beginning of advection time step 3, cumulative pore volumes 3.000000.

Cell 1.

Using solution 1.	Solution after simulation 2.
Using exchange 1.	Exchange assemblage after simulation 3.
Using surface 1.	
Using pure phase assemblage 1.	Pure-phase assemblage after simulation 3.

-------------------------------Phase assemblage--------------------------------

                                                      Moles in assemblage
Phase               SI  log IAP  log K(T, P)   Initial       Final       Delta

Calcite           0.00    -8.41     -8.41    6.644e-02   6.353e-02  -2.915e-03
Dolomite          0.00   -17.08    -17.08    1.606e+00   1.606e+00  -4.290e-04

------------------------------Surface composition------------------------------

Hfo           
	 -4.280e-03  Surface charge, eq
	 -2.294e-02  sigma, C/m**2
	 -6.396e-02  psi, V
	  2.489e+00  -F*psi/RT
	  1.205e+01  exp(-F*psi/RT)
	  6.000e+02  specific area, m**2/g
	  1.800e+04  m**2 for   3.000e+01 g


Hfo_w         
	  7.000e-02  moles
	                                   Mole                     Log
	Species               Moles    Fraction    Molality    Molality

	Hfo_wOH           5.331e-02       0.762   5.331e-02      -1.273
	Hfo_wO-           1.049e-02       0.150   1.049e-02      -1.979
	Hfo_wOH2+         6.208e-03       0.089   6.208e-03      -2.207
	Hfo_wOHSO4-2      3.202e-07       0.000   3.203e-07      -6.494
	Hfo_wSO4-         1.870e-08       0.000   1.870e-08      -7.728
	Hfo_wOCa+         6.530e-12       0.000   6.530e-12     -11.185
	Hfo_wOMg+         3.502e-12       0.000   3.503e-12     -11.456

-----------------------------Exchange composition------------------------------

X                1.000e+00 mol

	                               Equiv-    Equivalent      Log 
	Species             Moles      alents      Fraction     Gamma

	NaX               7.839e-01   7.839e-01   7.839e-01    -0.055
	CaX2              7.997e-02   1.599e-01   1.599e-01    -0.218
	MgX2              2.808e-02   5.615e-02   5.615e-02    -0.234

-----------------------------Solution composition------------------------------

	Elements           Molality       Moles

	C                 1.094e-02   1.094e-02
	Ca                8.318e-06   8.318e-06
	Cl                1.337e-04   1.337e-04
	Mg                6.422e-06   6.421e-06
	Na                1.420e-02   1.420e-02
	S                 2.373e-04   2.373e-04

----------------------------Description of solution----------------------------

                                       pH  =   9.305      Charge balance
                                       pe  =   4.000      Adjusted to redox equilibrium
       Specific Conductance (uS/cm, 25 oC) = 1247
                          Density (g/cm3)  =   0.99784
                               Volume (L)  =   1.00367
                        Activity of water  =   1.000
                           Ionic strength  =   1.509e-02
                       Mass of water (kg)  =   9.999e-01
                 Total alkalinity (eq/kg)  =   1.225e-02
                       Total CO2 (mol/kg)  =   1.094e-02
                      Temperature (deg C)  =  25.00
                  Electrical balance (eq)  =   1.370e-03
 Percent error, 100*(Cat-|An|)/(Cat+|An|)  =   5.06
                               Iterations  =  21
                         Gamma iterations  =   5
                      Osmotic coefficient  =   0.95229
                         Density of water  =   0.99704
                                  Total H  = 1.110138e+02
                                  Total O  = 5.553587e+01

----------------------------Distribution of species----------------------------

                                                    MacInnes  MacInnes
                                MacInnes       Log       Log       Log    mole V
   Species          Molality    Activity  Molality  Activity     Gamma   cm3/mol

   OH-             2.315e-05   2.042e-05    -4.635    -4.690    -0.055     -4.01
   H+              5.646e-10   4.955e-10    -9.248    -9.305    -0.057      0.00
   H2O             5.551e+01   9.996e-01     1.744    -0.000     0.000     18.07
C(4)          1.094e-02
   HCO3-           9.629e-03   8.434e-03    -2.016    -2.074    -0.058     24.85
   CO3-2           1.298e-03   7.794e-04    -2.887    -3.108    -0.221     -3.31
   CO2             9.154e-06   9.177e-06    -5.038    -5.037     0.001     29.09
   MgCO3           1.784e-06   1.784e-06    -5.749    -5.749     0.000    -17.09
Ca            8.318e-06
   Ca+2            8.318e-06   5.035e-06    -5.080    -5.298    -0.218    -17.86
Cl            1.337e-04
   Cl-             1.337e-04   1.180e-04    -3.874    -3.928    -0.054     18.16
Mg            6.422e-06
   Mg+2            4.629e-06   2.701e-06    -5.335    -5.569    -0.234    -21.55
   MgCO3           1.784e-06   1.784e-06    -5.749    -5.749     0.000    -17.09
   MgOH+           9.646e-09   8.458e-09    -8.016    -8.073    -0.057     (0)  
Na            1.420e-02
   Na+             1.420e-02   1.251e-02    -1.848    -1.903    -0.055     -1.29
S(6)          2.373e-04
   SO4-2           2.373e-04   1.416e-04    -3.625    -3.849    -0.224     14.55
   HSO4-           7.559e-12   6.682e-12   -11.122   -11.175    -0.054     40.36

------------------------------Saturation indices-------------------------------

	Phase               SI   log IAP   log K(298 K,   1 atm)

	Anhydrite        -4.92     -9.15   -4.22  CaSO4
	Aragonite        -0.19     -8.41   -8.22  CaCO3
	Bischofite      -17.88    -13.43    4.46  MgCl2:6H2O
	Bloedite        -14.73    -17.07   -2.35  Na2Mg(SO4)2:4H2O
	Brucite          -4.07    -14.95  -10.88  Mg(OH)2
	Burkeite        -21.45    -22.22   -0.77  Na6CO3(SO4)2
	Calcite           0.00     -8.41   -8.41  CaCO3
	CO2(g)           -3.58     -5.04   -1.46  CO2
	Dolomite          0.00    -17.08  -17.08  CaMg(CO3)2
	Epsomite         -7.54     -9.42   -1.88  MgSO4:7H2O
	Gaylussite       -5.90    -15.32   -9.42  CaNa2(CO3)2:5H2O
	Glauberite      -11.56    -16.80   -5.25  Na2Ca(SO4)2
	Gypsum           -4.57     -9.15   -4.58  CaSO4:2H2O
	H2O(g)           -1.50     -0.00    1.50  H2O
	Halite           -7.40     -5.83    1.57  NaCl
	Hexahydrite      -7.78     -9.42   -1.63  MgSO4:6H2O
	Kieserite        -9.29     -9.42   -0.12  MgSO4:H2O
	Labile_S        -18.78    -24.46   -5.67  Na4Ca(SO4)3:2H2O
	Leonhardite      -8.53     -9.42   -0.89  MgSO4:4H2O
	Magnesite        -0.84     -8.68   -7.83  MgCO3
	Mirabilite       -6.44     -7.66   -1.21  Na2SO4:10H2O
	Nahcolite        -3.57    -14.32  -10.74  NaHCO3
	Natron           -6.09     -6.92   -0.82  Na2CO3:10H2O
	Nesquehonite     -3.51     -8.68   -5.17  MgCO3:3H2O
	Pentahydrite     -8.13     -9.42   -1.28  MgSO4:5H2O
	Pirssonite       -6.09    -15.32   -9.23  Na2Ca(CO3)2:2H2O
	Portlandite      -9.49    -14.68   -5.19  Ca(OH)2
	Thenardite       -7.30     -7.65   -0.35  Na2SO4
	Trona            -9.85    -21.23  -11.38  Na3H(CO3)2:2H2O


Beginning of advection time step 4, cumulative pore volumes 4.000000.

Cell 1.

Using solution 1.	Solution after simulation 2.
Using exchange 1.	Exchange assemblage after simulation 3.
Using surface 1.	
Using pure phase assemblage 1.	Pure-phase assemblage after simulation 3.

-------------------------------Phase assemblage--------------------------------

                                                      Moles in assemblage
Phase               SI  log IAP  log K(T, P)   Initial       Final       Delta

Calcite           0.00    -8.41     -8.41    6.353e-02   6.131e-02  -2.220e-03
Dolomite          0.00   -17.08    -17.08    1.606e+00   1.605e+00  -3.812e-04

------------------------------Surface composition------------------------------

Hfo           
	 -4.687e-03  Surface charge, eq
	 -2.513e-02  sigma, C/m**2
	 -6.940e-02  psi, V
	  2.701e+00  -F*psi/RT
	  1.490e+01  exp(-F*psi/RT)
	  6.000e+02  specific area, m**2/g
	  1.800e+04  m**2 for   3.000e+01 g


Hfo_w         
	  7.000e-02  moles
	                                   Mole                     Log
	Species               Moles    Fraction    Molality    Molality

	Hfo_wOH           5.322e-02       0.760   5.323e-02      -1.274
	Hfo_wO-           1.073e-02       0.153   1.073e-02      -1.969
	Hfo_wOH2+         6.046e-03       0.086   6.046e-03      -2.219
	Hfo_wOHSO4-2      2.108e-07       0.000   2.108e-07      -6.676
	Hfo_wSO4-         1.201e-08       0.000   1.201e-08      -7.921
	Hfo_wOCa+         8.907e-12       0.000   8.908e-12     -11.050
	Hfo_wOMg+         4.778e-12       0.000   4.778e-12     -11.321

-----------------------------Exchange composition------------------------------

X                1.000e+00 mol

	                               Equiv-    Equivalent      Log 
	Species             Moles      alents      Fraction     Gamma

	NaX               7.714e-01   7.714e-01   7.714e-01    -0.054
	CaX2              8.468e-02   1.694e-01   1.694e-01    -0.214
	MgX2              2.961e-02   5.923e-02   5.923e-02    -0.228

-----------------------------Solution composition------------------------------

	Elements           Molality       Moles

	C                 1.015e-02   1.015e-02
	Ca                7.187e-06   7.187e-06
	Cl                1.337e-04   1.337e-04
	Mg                5.778e-06   5.778e-06
	Na                1.262e-02   1.262e-02
	S                 2.352e-04   2.352e-04

----------------------------Description of solution----------------------------

                                       pH  =   9.408      Charge balance
                                       pe  =   4.000      Adjusted to redox equilibrium
       Specific Conductance (uS/cm, 25 oC) = 1158
                          Density (g/cm3)  =   0.99778
                               Volume (L)  =   1.00360
                        Activity of water  =   1.000
                           Ionic strength  =   1.415e-02
                       Mass of water (kg)  =   9.999e-01
                 Total alkalinity (eq/kg)  =   1.164e-02
                       Total CO2 (mol/kg)  =   1.015e-02
                      Temperature (deg C)  =  25.00
                  Electrical balance (eq)  =   4.076e-04
 Percent error, 100*(Cat-|An|)/(Cat+|An|)  =   1.64
                               Iterations  =  22
                         Gamma iterations  =   5
                      Osmotic coefficient  =   0.95205
                         Density of water  =   0.99704
                                  Total H  = 1.110129e+02
                                  Total O  = 5.553349e+01

----------------------------Distribution of species----------------------------

                                                    MacInnes  MacInnes
                                MacInnes       Log       Log       Log    mole V
   Species          Molality    Activity  Molality  Activity     Gamma   cm3/mol

   OH-             2.923e-05   2.587e-05    -4.534    -4.587    -0.053     -4.01
   H+              4.444e-10   3.911e-10    -9.352    -9.408    -0.055      0.00
   H2O             5.551e+01   9.996e-01     1.744    -0.000     0.000     18.07
C(4)          1.015e-02
   HCO3-           8.674e-03   7.629e-03    -2.062    -2.118    -0.056     24.85
   CO3-2           1.465e-03   8.932e-04    -2.834    -3.049    -0.215     -3.33
   CO2             6.538e-06   6.552e-06    -5.185    -5.184     0.001     29.09
   MgCO3           1.784e-06   1.784e-06    -5.749    -5.749     0.000    -17.09
Ca            7.187e-06
   Ca+2            7.187e-06   4.394e-06    -5.143    -5.357    -0.214    -17.87
Cl            1.337e-04
   Cl-             1.337e-04   1.184e-04    -3.874    -3.927    -0.053     18.16
Mg            5.778e-06
   Mg+2            3.984e-06   2.357e-06    -5.400    -5.628    -0.228    -21.56
   MgCO3           1.784e-06   1.784e-06    -5.749    -5.749     0.000    -17.09
   MgOH+           1.063e-08   9.351e-09    -7.973    -8.029    -0.056     (0)  
Na            1.262e-02
   Na+             1.262e-02   1.116e-02    -1.899    -1.953    -0.054     -1.30
S(6)          2.352e-04
   SO4-2           2.352e-04   1.426e-04    -3.629    -3.846    -0.218     14.52
   HSO4-           5.989e-12   5.311e-12   -11.223   -11.275    -0.052     40.36

------------------------------Saturation indices-------------------------------

	Phase               SI   log IAP   log K(298 K,   1 atm)

	Anhydrite        -4.98     -9.20   -4.22  CaSO4
	Aragonite        -0.19     -8.41   -8.22  CaCO3
	Bischofite      -17.94    -13.48    4.46  MgCl2:6H2O
	Bloedite        -14.88    -17.23   -2.35  Na2Mg(SO4)2:4H2O
	Brucite          -3.92    -14.80  -10.88  Mg(OH)2
	Burkeite        -21.68    -22.46   -0.77  Na6CO3(SO4)2
	Calcite           0.00     -8.41   -8.41  CaCO3
	CO2(g)           -3.72     -5.18   -1.46  CO2
	Dolomite          0.00    -17.08  -17.08  CaMg(CO3)2
	Epsomite         -7.59     -9.47   -1.88  MgSO4:7H2O
	Gaylussite       -5.94    -15.36   -9.42  CaNa2(CO3)2:5H2O
	Glauberite      -11.71    -16.95   -5.25  Na2Ca(SO4)2
	Gypsum           -4.62     -9.20   -4.58  CaSO4:2H2O
	H2O(g)           -1.50     -0.00    1.50  H2O
	Halite           -7.45     -5.88    1.57  NaCl
	Hexahydrite      -7.84     -9.47   -1.63  MgSO4:6H2O
	Kieserite        -9.35     -9.47   -0.12  MgSO4:H2O
	Labile_S        -19.03    -24.71   -5.67  Na4Ca(SO4)3:2H2O
	Leonhardite      -8.59     -9.47   -0.89  MgSO4:4H2O
	Magnesite        -0.84     -8.68   -7.83  MgCO3
	Mirabilite       -6.54     -7.75   -1.21  Na2SO4:10H2O
	Nahcolite        -3.67    -14.41  -10.74  NaHCO3
	Natron           -6.13     -6.96   -0.82  Na2CO3:10H2O
	Nesquehonite     -3.51     -8.68   -5.17  MgCO3:3H2O
	Pentahydrite     -8.19     -9.47   -1.28  MgSO4:5H2O
	Pirssonite       -6.13    -15.36   -9.23  Na2Ca(CO3)2:2H2O
	Portlandite      -9.34    -14.53   -5.19  Ca(OH)2
	Thenardite       -7.40     -7.75   -0.35  Na2SO4
	Trona            -9.98    -21.36  -11.38  Na3H(CO3)2:2H2O


Beginning of advection time step 5, cumulative pore volumes 5.000000.

Cell 1.

Using solution 1.	Solution after simulation 2.
Using exchange 1.	Exchange assemblage after simulation 3.
Using surface 1.	
Using pure phase assemblage 1.	Pure-phase assemblage after simulation 3.

-------------------------------Phase assemblage--------------------------------

                                                      Moles in assemblage
Phase               SI  log IAP  log K(T, P)   Initial       Final       Delta

Calcite           0.00    -8.41     -8.41    6.131e-02   5.934e-02  -1.966e-03
Dolomite          0.00   -17.08    -17.08    1.605e+00   1.605e+00  -3.452e-04

------------------------------Surface composition------------------------------

Hfo           
	 -4.750e-03  Surface charge, eq
	 -2.546e-02  sigma, C/m**2
	 -7.075e-02  psi, V
	  2.754e+00  -F*psi/RT
	  1.570e+01  exp(-F*psi/RT)
	  6.000e+02  specific area, m**2/g
	  1.800e+04  m**2 for   3.000e+01 g


Hfo_w         
	  7.000e-02  moles
	                                   Mole                     Log
	Species               Moles    Fraction    Molality    Molality

	Hfo_wOH           5.321e-02       0.760   5.321e-02      -1.274
	Hfo_wO-           1.077e-02       0.154   1.077e-02      -1.968
	Hfo_wOH2+         6.021e-03       0.086   6.022e-03      -2.220
	Hfo_wOHSO4-2      1.910e-07       0.000   1.911e-07      -6.719
	Hfo_wSO4-         1.084e-08       0.000   1.084e-08      -7.965
	Hfo_wOCa+         9.752e-12       0.000   9.752e-12     -11.011
	Hfo_wOMg+         5.230e-12       0.000   5.231e-12     -11.281

-----------------------------Exchange composition------------------------------

X                1.000e+00 mol

	                               Equiv-    Equivalent      Log 
	Species             Moles      alents      Fraction     Gamma

	NaX               7.596e-01   7.596e-01   7.596e-01    -0.053
	CaX2              8.910e-02   1.782e-01   1.782e-01    -0.211
	MgX2              3.112e-02   6.223e-02   6.223e-02    -0.225

-----------------------------Solution composition------------------------------

	Elements           Molality       Moles

	C                 9.821e-03   9.820e-03
	Ca                7.014e-06   7.014e-06
	Cl                1.337e-04   1.337e-04
	Mg                5.677e-06   5.677e-06
	Na                1.197e-02   1.197e-02
	S                 2.351e-04   2.351e-04

----------------------------Description of solution----------------------------

                                       pH  =   9.432      Charge balance
                                       pe  =   4.000      Adjusted to redox equilibrium
       Specific Conductance (uS/cm, 25 oC) = 1117
                          Density (g/cm3)  =   0.99775
                               Volume (L)  =   1.00358
                        Activity of water  =   1.000
                           Ionic strength  =   1.369e-02
                       Mass of water (kg)  =   9.999e-01
                 Total alkalinity (eq/kg)  =   1.133e-02
                       Total CO2 (mol/kg)  =   9.821e-03
                      Temperature (deg C)  =  25.00
                  Electrical balance (eq)  =   6.278e-05
 Percent error, 100*(Cat-|An|)/(Cat+|An|)  =   0.26
                               Iterations  =  22
                         Gamma iterations  =   5
                      Osmotic coefficient  =   0.95226
                         Density of water  =   0.99704
                                  Total H  = 1.110125e+02
                                  Total O  = 5.553251e+01

----------------------------Distribution of species----------------------------

                                                    MacInnes  MacInnes
                                MacInnes       Log       Log       Log    mole V
   Species          Molality    Activity  Molality  Activity     Gamma   cm3/mol

   OH-             3.087e-05   2.737e-05    -4.510    -4.563    -0.052     -4.01
   H+              4.193e-10   3.696e-10    -9.377    -9.432    -0.055      0.00
   H2O             5.551e+01   9.996e-01     1.744    -0.000     0.000     18.07
C(4)          9.821e-03
   HCO3-           8.331e-03   7.343e-03    -2.079    -2.134    -0.055     24.85
   CO3-2           1.481e-03   9.096e-04    -2.829    -3.041    -0.212     -3.34
   CO2             5.948e-06   5.960e-06    -5.226    -5.225     0.001     29.09
   MgCO3           1.784e-06   1.784e-06    -5.749    -5.749     0.000    -17.09
Ca            7.014e-06
   Ca+2            7.014e-06   4.314e-06    -5.154    -5.365    -0.211    -17.88
Cl            1.337e-04
   Cl-             1.337e-04   1.186e-04    -3.874    -3.926    -0.052     18.15
Mg            5.677e-06
   Mg+2            3.882e-06   2.314e-06    -5.411    -5.636    -0.225    -21.57
   MgCO3           1.784e-06   1.784e-06    -5.749    -5.749     0.000    -17.09
   MgOH+           1.103e-08   9.715e-09    -7.958    -8.013    -0.055     (0)  
Na            1.197e-02
   Na+             1.197e-02   1.060e-02    -1.922    -1.975    -0.053     -1.30
S(6)          2.351e-04
   SO4-2           2.351e-04   1.436e-04    -3.629    -3.843    -0.214     14.51
   HSO4-           5.691e-12   5.056e-12   -11.245   -11.296    -0.051     40.36

------------------------------Saturation indices-------------------------------

	Phase               SI   log IAP   log K(298 K,   1 atm)

	Anhydrite        -4.98     -9.21   -4.22  CaSO4
	Aragonite        -0.19     -8.41   -8.22  CaCO3
	Bischofite      -17.94    -13.49    4.46  MgCl2:6H2O
	Bloedite        -14.92    -17.27   -2.35  Na2Mg(SO4)2:4H2O
	Brucite          -3.88    -14.76  -10.88  Mg(OH)2
	Burkeite        -21.80    -22.58   -0.77  Na6CO3(SO4)2
	Calcite           0.00     -8.41   -8.41  CaCO3
	CO2(g)           -3.76     -5.22   -1.46  CO2
	Dolomite          0.00    -17.08  -17.08  CaMg(CO3)2
	Epsomite         -7.60     -9.48   -1.88  MgSO4:7H2O
	Gaylussite       -5.98    -15.40   -9.42  CaNa2(CO3)2:5H2O
	Glauberite      -11.76    -17.00   -5.25  Na2Ca(SO4)2
	Gypsum           -4.63     -9.21   -4.58  CaSO4:2H2O
	H2O(g)           -1.50     -0.00    1.50  H2O
	Halite           -7.47     -5.90    1.57  NaCl
	Hexahydrite      -7.84     -9.48   -1.63  MgSO4:6H2O
	Kieserite        -9.36     -9.48   -0.12  MgSO4:H2O
	Labile_S        -19.12    -24.79   -5.67  Na4Ca(SO4)3:2H2O
	Leonhardite      -8.59     -9.48   -0.89  MgSO4:4H2O
	Magnesite        -0.84     -8.68   -7.83  MgCO3
	Mirabilite       -6.58     -7.79   -1.21  Na2SO4:10H2O
	Nahcolite        -3.71    -14.45  -10.74  NaHCO3
	Natron           -6.17     -6.99   -0.82  Na2CO3:10H2O
	Nesquehonite     -3.51     -8.68   -5.17  MgCO3:3H2O
	Pentahydrite     -8.19     -9.48   -1.28  MgSO4:5H2O
	Pirssonite       -6.16    -15.40   -9.23  Na2Ca(CO3)2:2H2O
	Portlandite      -9.30    -14.49   -5.19  Ca(OH)2
	Thenardite       -7.44     -7.79   -0.35  Na2SO4
	Trona           -10.06    -21.44  -11.38  Na3H(CO3)2:2H2O


Beginning of advection time step 6, cumulative pore volumes 6.000000.

Cell 1.

Using solution 1.	Solution after simulation 2.
Using exchange 1.	Exchange assemblage after simulation 3.
Using surface 1.	
Using pure phase assemblage 1.	Pure-phase assemblage after simulation 3.

-------------------------------Phase assemblage--------------------------------

                                                      Moles in assemblage
Phase               SI  log IAP  log K(T, P)   Initial       Final       Delta

Calcite           0.00    -8.41     -8.41    5.934e-02   5.749e-02  -1.846e-03
Dolomite          0.00   -17.08    -17.08    1.605e+00   1.604e+00  -3.184e-04

------------------------------Surface composition------------------------------

Hfo           
	 -4.681e-03  Surface charge, eq
	 -2.509e-02  sigma, C/m**2
	 -7.063e-02  psi, V
	  2.749e+00  -F*psi/RT
	  1.563e+01  exp(-F*psi/RT)
	  6.000e+02  specific area, m**2/g
	  1.800e+04  m**2 for   3.000e+01 g


Hfo_w         
	  7.000e-02  moles
	                                   Mole                     Log
	Species               Moles    Fraction    Molality    Molality

	Hfo_wOH           5.322e-02       0.760   5.323e-02      -1.274
	Hfo_wO-           1.073e-02       0.153   1.073e-02      -1.969
	Hfo_wOH2+         6.048e-03       0.086   6.049e-03      -2.218
	Hfo_wOHSO4-2      1.939e-07       0.000   1.939e-07      -6.712
	Hfo_wSO4-         1.105e-08       0.000   1.105e-08      -7.957
	Hfo_wOCa+         9.851e-12       0.000   9.851e-12     -11.007
	Hfo_wOMg+         5.283e-12       0.000   5.284e-12     -11.277

-----------------------------Exchange composition------------------------------

X                1.000e+00 mol

	                               Equiv-    Equivalent      Log 
	Species             Moles      alents      Fraction     Gamma

	NaX               7.481e-01   7.481e-01   7.481e-01    -0.052
	CaX2              9.338e-02   1.868e-01   1.868e-01    -0.209
	MgX2              3.259e-02   6.519e-02   6.519e-02    -0.222

-----------------------------Solution composition------------------------------

	Elements           Molality       Moles

	C                 9.647e-03   9.646e-03
	Ca                7.145e-06   7.145e-06
	Cl                1.337e-04   1.337e-04
	Mg                5.748e-06   5.747e-06
	Na                1.162e-02   1.162e-02
	S                 2.351e-04   2.351e-04

----------------------------Description of solution----------------------------

                                       pH  =   9.428      Charge balance
                                       pe  =   4.000      Adjusted to redox equilibrium
       Specific Conductance (uS/cm, 25 oC) = 1092
                          Density (g/cm3)  =   0.99773
                               Volume (L)  =   1.00357
                        Activity of water  =   1.000
                           Ionic strength  =   1.337e-02
                       Mass of water (kg)  =   9.999e-01
                 Total alkalinity (eq/kg)  =   1.111e-02
                       Total CO2 (mol/kg)  =   9.647e-03
                      Temperature (deg C)  =  25.00
                  Electrical balance (eq)  =  -6.894e-05
 Percent error, 100*(Cat-|An|)/(Cat+|An|)  =  -0.30
                               Iterations  =  22
                         Gamma iterations  =   5
                      Osmotic coefficient  =   0.95271
                         Density of water  =   0.99704
                                  Total H  = 1.110124e+02
                                  Total O  = 5.553198e+01

----------------------------Distribution of species----------------------------

                                                    MacInnes  MacInnes
                                MacInnes       Log       Log       Log    mole V
   Species          Molality    Activity  Molality  Activity     Gamma   cm3/mol

   OH-             3.056e-05   2.713e-05    -4.515    -4.567    -0.052     -4.01
   H+              4.225e-10   3.729e-10    -9.374    -9.428    -0.054      0.00
   H2O             5.551e+01   9.996e-01     1.744    -0.000     0.000     18.07
C(4)          9.647e-03
   HCO3-           8.199e-03   7.237e-03    -2.086    -2.140    -0.054     24.84
   CO3-2           1.440e-03   8.885e-04    -2.842    -3.051    -0.210     -3.34
   CO2             5.915e-06   5.927e-06    -5.228    -5.227     0.001     29.09
   MgCO3           1.784e-06   1.784e-06    -5.749    -5.749     0.000    -17.09
Ca            7.145e-06
   Ca+2            7.145e-06   4.417e-06    -5.146    -5.355    -0.209    -17.88
Cl            1.337e-04
   Cl-             1.337e-04   1.187e-04    -3.874    -3.925    -0.052     18.15
Mg            5.748e-06
   Mg+2            3.953e-06   2.369e-06    -5.403    -5.625    -0.222    -21.57
   MgCO3           1.784e-06   1.784e-06    -5.749    -5.749     0.000    -17.09
   MgOH+           1.117e-08   9.857e-09    -7.952    -8.006    -0.054     (0)  
Na            1.162e-02
   Na+             1.162e-02   1.030e-02    -1.935    -1.987    -0.052     -1.30
S(6)          2.351e-04
   SO4-2           2.351e-04   1.443e-04    -3.629    -3.841    -0.212     14.50
   HSO4-           5.764e-12   5.126e-12   -11.239   -11.290    -0.051     40.35

------------------------------Saturation indices-------------------------------

	Phase               SI   log IAP   log K(298 K,   1 atm)

	Anhydrite        -4.97     -9.20   -4.22  CaSO4
	Aragonite        -0.19     -8.41   -8.22  CaCO3
	Bischofite      -17.93    -13.48    4.46  MgCl2:6H2O
	Bloedite        -14.93    -17.28   -2.35  Na2Mg(SO4)2:4H2O
	Brucite          -3.88    -14.76  -10.88  Mg(OH)2
	Burkeite        -21.88    -22.66   -0.77  Na6CO3(SO4)2
	Calcite           0.00     -8.41   -8.41  CaCO3
	CO2(g)           -3.77     -5.23   -1.46  CO2
	Dolomite          0.00    -17.08  -17.08  CaMg(CO3)2
	Epsomite         -7.59     -9.47   -1.88  MgSO4:7H2O
	Gaylussite       -6.01    -15.43   -9.42  CaNa2(CO3)2:5H2O
	Glauberite      -11.77    -17.01   -5.25  Na2Ca(SO4)2
	Gypsum           -4.62     -9.20   -4.58  CaSO4:2H2O
	H2O(g)           -1.50     -0.00    1.50  H2O
	Halite           -7.48     -5.91    1.57  NaCl
	Hexahydrite      -7.83     -9.47   -1.63  MgSO4:6H2O
	Kieserite        -9.34     -9.47   -0.12  MgSO4:H2O
	Labile_S        -19.15    -24.83   -5.67  Na4Ca(SO4)3:2H2O
	Leonhardite      -8.58     -9.47   -0.89  MgSO4:4H2O
	Magnesite        -0.84     -8.68   -7.83  MgCO3
	Mirabilite       -6.60     -7.82   -1.21  Na2SO4:10H2O
	Nahcolite        -3.72    -14.47  -10.74  NaHCO3
	Natron           -6.20     -7.03   -0.82  Na2CO3:10H2O
	Nesquehonite     -3.51     -8.68   -5.17  MgCO3:3H2O
	Pentahydrite     -8.18     -9.47   -1.28  MgSO4:5H2O
	Pirssonite       -6.20    -15.43   -9.23  Na2Ca(CO3)2:2H2O
	Portlandite      -9.30    -14.49   -5.19  Ca(OH)2
	Thenardite       -7.46     -7.81   -0.35  Na2SO4
	Trona           -10.11    -21.49  -11.38  Na3H(CO3)2:2H2O


Beginning of advection time step 7, cumulative pore volumes 7.000000.

Cell 1.

Using solution 1.	Solution after simulation 2.
Using exchange 1.	Exchange assemblage after simulation 3.
Using surface 1.	
Using pure phase assemblage 1.	Pure-phase assemblage after simulation 3.

-------------------------------Phase assemblage--------------------------------

                                                      Moles in assemblage
Phase               SI  log IAP  log K(T, P)   Initial       Final       Delta

Calcite           0.00    -8.41     -8.41    5.749e-02   5.572e-02  -1.777e-03
Dolomite          0.00   -17.08    -17.08    1.604e+00   1.604e+00  -2.970e-04

------------------------------Surface composition------------------------------

Hfo           
	 -4.563e-03  Surface charge, eq
	 -2.446e-02  sigma, C/m**2
	 -6.992e-02  psi, V
	  2.721e+00  -F*psi/RT
	  1.520e+01  exp(-F*psi/RT)
	  6.000e+02  specific area, m**2/g
	  1.800e+04  m**2 for   3.000e+01 g


Hfo_w         
	  7.000e-02  moles
	                                   Mole                     Log
	Species               Moles    Fraction    Molality    Molality

	Hfo_wOH           5.325e-02       0.761   5.325e-02      -1.274
	Hfo_wO-           1.066e-02       0.152   1.066e-02      -1.972
	Hfo_wOH2+         6.095e-03       0.087   6.095e-03      -2.215
	Hfo_wOHSO4-2      2.057e-07       0.000   2.058e-07      -6.687
	Hfo_wSO4-         1.181e-08       0.000   1.181e-08      -7.928
	Hfo_wOCa+         9.636e-12       0.000   9.636e-12     -11.016
	Hfo_wOMg+         5.168e-12       0.000   5.169e-12     -11.287

-----------------------------Exchange composition------------------------------

X                1.000e+00 mol

	                               Equiv-    Equivalent      Log 
	Species             Moles      alents      Fraction     Gamma

	NaX               7.368e-01   7.368e-01   7.368e-01    -0.052
	CaX2              9.756e-02   1.951e-01   1.951e-01    -0.207
	MgX2              3.405e-02   6.809e-02   6.809e-02    -0.220

-----------------------------Solution composition------------------------------

	Elements           Molality       Moles

	C                 9.535e-03   9.535e-03
	Ca                7.401e-06   7.401e-06
	Cl                1.337e-04   1.337e-04
	Mg                5.889e-06   5.888e-06
	Na                1.140e-02   1.140e-02
	S                 2.351e-04   2.351e-04

----------------------------Description of solution----------------------------

                                       pH  =   9.413      Charge balance
                                       pe  =   4.000      Adjusted to redox equilibrium
       Specific Conductance (uS/cm, 25 oC) = 1073
                          Density (g/cm3)  =   0.99772
                               Volume (L)  =   1.00356
                        Activity of water  =   1.000
                           Ionic strength  =   1.311e-02
                       Mass of water (kg)  =   9.999e-01
                 Total alkalinity (eq/kg)  =   1.094e-02
                       Total CO2 (mol/kg)  =   9.535e-03
                      Temperature (deg C)  =  25.00
                  Electrical balance (eq)  =  -1.179e-04
 Percent error, 100*(Cat-|An|)/(Cat+|An|)  =  -0.51
                               Iterations  =  22
                         Gamma iterations  =   5
                      Osmotic coefficient  =   0.95326
                         Density of water  =   0.99704
                                  Total H  = 1.110123e+02
                                  Total O  = 5.553165e+01

----------------------------Distribution of species----------------------------

                                                    MacInnes  MacInnes
                                MacInnes       Log       Log       Log    mole V
   Species          Molality    Activity  Molality  Activity     Gamma   cm3/mol

   OH-             2.949e-05   2.620e-05    -4.530    -4.582    -0.051     -4.02
   H+              4.369e-10   3.861e-10    -9.360    -9.413    -0.054      0.00
   H2O             5.551e+01   9.996e-01     1.744    -0.000     0.000     18.07
C(4)          9.535e-03
   HCO3-           8.149e-03   7.201e-03    -2.089    -2.143    -0.054     24.84
   CO3-2           1.379e-03   8.539e-04    -2.861    -3.069    -0.208     -3.35
   CO2             6.093e-06   6.105e-06    -5.215    -5.214     0.001     29.09
   MgCO3           1.784e-06   1.784e-06    -5.749    -5.749     0.000    -17.09
Ca            7.401e-06
   Ca+2            7.401e-06   4.596e-06    -5.131    -5.338    -0.207    -17.89
Cl            1.337e-04
   Cl-             1.337e-04   1.189e-04    -3.874    -3.925    -0.051     18.15
Mg            5.889e-06
   Mg+2            4.094e-06   2.465e-06    -5.388    -5.608    -0.220    -21.57
   MgCO3           1.784e-06   1.784e-06    -5.749    -5.749     0.000    -17.09
   MgOH+           1.122e-08   9.907e-09    -7.950    -8.004    -0.054     (0)  
Na            1.140e-02
   Na+             1.140e-02   1.011e-02    -1.943    -1.995    -0.052     -1.30
S(6)          2.351e-04
   SO4-2           2.351e-04   1.448e-04    -3.629    -3.839    -0.210     14.50
   HSO4-           5.985e-12   5.328e-12   -11.223   -11.273    -0.050     40.35

------------------------------Saturation indices-------------------------------

	Phase               SI   log IAP   log K(298 K,   1 atm)

	Anhydrite        -4.95     -9.18   -4.22  CaSO4
	Aragonite        -0.19     -8.41   -8.22  CaCO3
	Bischofite      -17.91    -13.46    4.46  MgCl2:6H2O
	Bloedite        -14.93    -17.28   -2.35  Na2Mg(SO4)2:4H2O
	Brucite          -3.89    -14.77  -10.88  Mg(OH)2
	Burkeite        -21.95    -22.72   -0.77  Na6CO3(SO4)2
	Calcite           0.00     -8.41   -8.41  CaCO3
	CO2(g)           -3.75     -5.21   -1.46  CO2
	Dolomite          0.00    -17.08  -17.08  CaMg(CO3)2
	Epsomite         -7.57     -9.45   -1.88  MgSO4:7H2O
	Gaylussite       -6.04    -15.47   -9.42  CaNa2(CO3)2:5H2O
	Glauberite      -11.76    -17.01   -5.25  Na2Ca(SO4)2
	Gypsum           -4.60     -9.18   -4.58  CaSO4:2H2O
	H2O(g)           -1.50     -0.00    1.50  H2O
	Halite           -7.49     -5.92    1.57  NaCl
	Hexahydrite      -7.81     -9.45   -1.63  MgSO4:6H2O
	Kieserite        -9.32     -9.45   -0.12  MgSO4:H2O
	Labile_S        -19.16    -24.84   -5.67  Na4Ca(SO4)3:2H2O
	Leonhardite      -8.56     -9.45   -0.89  MgSO4:4H2O
	Magnesite        -0.84     -8.68   -7.83  MgCO3
	Mirabilite       -6.62     -7.83   -1.21  Na2SO4:10H2O
	Nahcolite        -3.73    -14.48  -10.74  NaHCO3
	Natron           -6.24     -7.06   -0.82  Na2CO3:10H2O
	Nesquehonite     -3.51     -8.68   -5.17  MgCO3:3H2O
	Pentahydrite     -8.16     -9.45   -1.28  MgSO4:5H2O
	Pirssonite       -6.23    -15.47   -9.23  Na2Ca(CO3)2:2H2O
	Portlandite      -9.31    -14.50   -5.19  Ca(OH)2
	Thenardite       -7.48     -7.83   -0.35  Na2SO4
	Trona           -10.15    -21.54  -11.38  Na3H(CO3)2:2H2O


Beginning of advection time step 8, cumulative pore volumes 8.000000.

Cell 1.

Using solution 1.	Solution after simulation 2.
Using exchange 1.	Exchange assemblage after simulation 3.
Using surface 1.	
Using pure phase assemblage 1.	Pure-phase assemblage after simulation 3.

-------------------------------Phase assemblage--------------------------------

                                                      Moles in assemblage
Phase               SI  log IAP  log K(T, P)   Initial       Final       Delta

Calcite           0.00    -8.41     -8.41    5.572e-02   5.399e-02  -1.730e-03
Dolomite          0.00   -17.08    -17.08    1.604e+00   1.604e+00  -2.786e-04

------------------------------Surface composition------------------------------

Hfo           
	 -4.429e-03  Surface charge, eq
	 -2.374e-02  sigma, C/m**2
	 -6.897e-02  psi, V
	  2.685e+00  -F*psi/RT
	  1.465e+01  exp(-F*psi/RT)
	  6.000e+02  specific area, m**2/g
	  1.800e+04  m**2 for   3.000e+01 g


Hfo_w         
	  7.000e-02  moles
	                                   Mole                     Log
	Species               Moles    Fraction    Molality    Molality

	Hfo_wOH           5.328e-02       0.761   5.328e-02      -1.273
	Hfo_wO-           1.058e-02       0.151   1.058e-02      -1.976
	Hfo_wOH2+         6.148e-03       0.088   6.148e-03      -2.211
	Hfo_wOHSO4-2      2.223e-07       0.000   2.223e-07      -6.653
	Hfo_wSO4-         1.286e-08       0.000   1.286e-08      -7.891
	Hfo_wOCa+         9.304e-12       0.000   9.304e-12     -11.031
	Hfo_wOMg+         4.990e-12       0.000   4.990e-12     -11.302

-----------------------------Exchange composition------------------------------

X                1.000e+00 mol

	                               Equiv-    Equivalent      Log 
	Species             Moles      alents      Fraction     Gamma

	NaX               7.257e-01   7.257e-01   7.257e-01    -0.052
	CaX2              1.017e-01   2.034e-01   2.034e-01    -0.205
	MgX2              3.548e-02   7.096e-02   7.096e-02    -0.218

-----------------------------Solution composition------------------------------

	Elements           Molality       Moles

	C                 9.452e-03   9.451e-03
	Ca                7.718e-06   7.718e-06
	Cl                1.337e-04   1.337e-04
	Mg                6.064e-06   6.063e-06
	Na                1.123e-02   1.123e-02
	S                 2.351e-04   2.351e-04

----------------------------Description of solution----------------------------

                                       pH  =   9.394      Charge balance
                                       pe  =   4.000      Adjusted to redox equilibrium
       Specific Conductance (uS/cm, 25 oC) = 1057
                          Density (g/cm3)  =   0.99771
                               Volume (L)  =   1.00356
                        Activity of water  =   1.000
                           Ionic strength  =   1.288e-02
                       Mass of water (kg)  =   9.999e-01
                 Total alkalinity (eq/kg)  =   1.079e-02
                       Total CO2 (mol/kg)  =   9.452e-03
                      Temperature (deg C)  =  25.00
                  Electrical balance (eq)  =  -1.336e-04
 Percent error, 100*(Cat-|An|)/(Cat+|An|)  =  -0.59
                               Iterations  =  22
                         Gamma iterations  =   5
                      Osmotic coefficient  =   0.95383
                         Density of water  =   0.99704
                                  Total H  = 1.110123e+02
                                  Total O  = 5.553140e+01

----------------------------Distribution of species----------------------------

                                                    MacInnes  MacInnes
                                MacInnes       Log       Log       Log    mole V
   Species          Molality    Activity  Molality  Activity     Gamma   cm3/mol

   OH-             2.817e-05   2.505e-05    -4.550    -4.601    -0.051     -4.02
   H+              4.565e-10   4.039e-10    -9.341    -9.394    -0.053      0.00
   H2O             5.551e+01   9.996e-01     1.744    -0.000     0.000     18.07
C(4)          9.452e-03
   HCO3-           8.131e-03   7.192e-03    -2.090    -2.143    -0.053     24.84
   CO3-2           1.312e-03   8.154e-04    -2.882    -3.089    -0.207     -3.35
   CO2             6.366e-06   6.378e-06    -5.196    -5.195     0.001     29.09
   MgCO3           1.784e-06   1.784e-06    -5.749    -5.749     0.000    -17.09
Ca            7.718e-06
   Ca+2            7.718e-06   4.813e-06    -5.112    -5.318    -0.205    -17.89
Cl            1.337e-04
   Cl-             1.337e-04   1.190e-04    -3.874    -3.925    -0.051     18.15
Mg            6.064e-06
   Mg+2            4.269e-06   2.582e-06    -5.370    -5.588    -0.218    -21.58
[...]
	Species               Moles    Fraction    Molality    Molality

	Hfo_wOH           5.052e-02       0.722   5.052e-02      -1.297
	Hfo_wOH2+         1.217e-02       0.174   1.217e-02      -1.915
	Hfo_wO-           4.805e-03       0.069   4.806e-03      -2.318
	Hfo_wOHSO4-2      2.243e-03       0.032   2.243e-03      -2.649
	Hfo_wSO4-         2.707e-04       0.004   2.708e-04      -3.567
	Hfo_wOCa+         1.015e-13       0.000   1.015e-13     -12.993
	Hfo_wOMg+         6.018e-14       0.000   6.018e-14     -13.221

-----------------------------Exchange composition------------------------------

X                1.000e+00 mol

	                               Equiv-    Equivalent      Log 
	Species             Moles      alents      Fraction     Gamma

	CaX2              3.614e-01   7.227e-01   7.227e-01    -0.172
	MgX2              1.382e-01   2.763e-01   2.763e-01    -0.182
	NaX               9.203e-04   9.203e-04   9.203e-04    -0.046

-----------------------------Solution composition------------------------------

	Elements           Molality       Moles

	C                 7.158e-03   7.157e-03
	Ca                2.037e-03   2.037e-03
	Cl                1.337e-04   1.337e-04
	Mg                1.236e-03   1.236e-03
	Na                1.227e-04   1.227e-04
	S                 2.353e-04   2.353e-04

----------------------------Description of solution----------------------------

                                       pH  =   7.037      Charge balance
                                       pe  =   4.000      Adjusted to redox equilibrium
       Specific Conductance (uS/cm, 25 oC) = 612
                          Density (g/cm3)  =   0.99748
                               Volume (L)  =   1.00340
                        Activity of water  =   1.000
                           Ionic strength  =   1.018e-02
                       Mass of water (kg)  =   9.999e-01
                 Total alkalinity (eq/kg)  =   6.065e-03
                       Total CO2 (mol/kg)  =   7.158e-03
                      Temperature (deg C)  =  25.00
                  Electrical balance (eq)  =   4.134e-08
 Percent error, 100*(Cat-|An|)/(Cat+|An|)  =   0.00
                               Iterations  =  13
                         Gamma iterations  =   3
                      Osmotic coefficient  =   0.94026
                         Density of water  =   0.99704
                                  Total H  = 1.110125e+02
                                  Total O  = 5.552452e+01

----------------------------Distribution of species----------------------------

                                                    MacInnes  MacInnes
                                MacInnes       Log       Log       Log    mole V
   Species          Molality    Activity  Molality  Activity     Gamma   cm3/mol

   OH-             1.256e-07   1.103e-07    -6.901    -6.957    -0.056     -4.03
   H+              1.022e-07   9.175e-08    -6.990    -7.037    -0.047      0.00
   H2O             5.551e+01   9.998e-01     1.744    -0.000     0.000     18.07
C(4)          7.158e-03
   HCO3-           6.053e-03   5.461e-03    -2.218    -2.263    -0.045     24.83
   CO2             1.099e-03   1.100e-03    -2.959    -2.959     0.001     29.09
   CO3-2           4.341e-06   2.725e-06    -5.362    -5.565    -0.202     -3.40
   MgCO3           1.875e-06   1.875e-06    -5.727    -5.727     0.000    -17.09
Ca            2.037e-03
   Ca+2            2.037e-03   1.370e-03    -2.691    -2.863    -0.172    -17.92
Cl            1.337e-04
   Cl-             1.337e-04   1.203e-04    -3.874    -3.920    -0.046     18.14
Mg            1.236e-03
   Mg+2            1.234e-03   8.119e-04    -2.909    -3.091    -0.182    -21.61
   MgCO3           1.875e-06   1.875e-06    -5.727    -5.727     0.000    -17.09
   MgOH+           1.531e-08   1.374e-08    -7.815    -7.862    -0.047     (0)  
Na            1.227e-04
   Na+             1.227e-04   1.103e-04    -3.911    -3.958    -0.046     -1.31
S(6)          2.353e-04
   SO4-2           2.353e-04   1.305e-04    -3.628    -3.884    -0.256     14.42
   HSO4-           1.263e-09   1.140e-09    -8.898    -8.943    -0.044     40.34

------------------------------Saturation indices-------------------------------

	Phase               SI   log IAP   log K(298 K,   1 atm)

	Anhydrite        -2.52     -6.75   -4.22  CaSO4
	Aragonite        -0.21     -8.43   -8.22  CaCO3
	Bischofite      -15.39    -10.93    4.46  MgCl2:6H2O
	Bloedite        -16.43    -18.77   -2.35  Na2Mg(SO4)2:4H2O
	Brucite          -6.13    -17.01  -10.88  Mg(OH)2
	Burkeite        -36.31    -37.08   -0.77  Na6CO3(SO4)2
	Calcite          -0.02     -8.43   -8.41  CaCO3
	CO2(g)           -1.50     -2.96   -1.46  CO2
	Dolomite          0.00    -17.08  -17.08  CaMg(CO3)2
	Epsomite         -5.09     -6.98   -1.88  MgSO4:7H2O
	Gaylussite      -12.49    -21.91   -9.42  CaNa2(CO3)2:5H2O
	Glauberite      -13.30    -18.55   -5.25  Na2Ca(SO4)2
	Gypsum           -2.17     -6.75   -4.58  CaSO4:2H2O
	H2O(g)           -1.50     -0.00    1.50  H2O
	Halite           -9.45     -7.88    1.57  NaCl
	Hexahydrite      -5.34     -6.98   -1.63  MgSO4:6H2O
	Kieserite        -6.85     -6.98   -0.12  MgSO4:H2O
	Labile_S        -24.67    -30.35   -5.67  Na4Ca(SO4)3:2H2O
	Leonhardite      -6.09     -6.98   -0.89  MgSO4:4H2O
	Magnesite        -0.82     -8.66   -7.83  MgCO3
	Mirabilite      -10.59    -11.80   -1.21  Na2SO4:10H2O
	Nahcolite        -5.82    -16.56  -10.74  NaHCO3
	Natron          -12.66    -13.48   -0.82  Na2CO3:10H2O
	Nesquehonite     -3.49     -8.66   -5.17  MgCO3:3H2O
	Pentahydrite     -5.69     -6.98   -1.28  MgSO4:5H2O
	Pirssonite      -12.67    -21.91   -9.23  Na2Ca(CO3)2:2H2O
	Portlandite     -11.59    -16.78   -5.19  Ca(OH)2
	Thenardite      -11.45    -11.80   -0.35  Na2SO4
	Trona           -18.66    -30.04  -11.38  Na3H(CO3)2:2H2O


Beginning of advection time step 199, cumulative pore volumes 199.000000.

Cell 1.

Using solution 1.	Solution after simulation 2.
Using exchange 1.	Exchange assemblage after simulation 3.
Using surface 1.	
Using pure phase assemblage 1.	Pure-phase assemblage after simulation 3.

-------------------------------Phase assemblage--------------------------------

                                                      Moles in assemblage
Phase               SI  log IAP  log K(T, P)   Initial       Final       Delta

Calcite          -0.02    -8.43     -8.41    0.000e+00           0   0.000e+00
Dolomite          0.00   -17.08    -17.08    1.583e+00   1.583e+00   3.327e-06

------------------------------Surface composition------------------------------

Hfo           
	  2.604e-03  Surface charge, eq
	  1.396e-02  sigma, C/m**2
	  5.152e-02  psi, V
	 -2.005e+00  -F*psi/RT
	  1.346e-01  exp(-F*psi/RT)
	  6.000e+02  specific area, m**2/g
	  1.800e+04  m**2 for   3.000e+01 g


Hfo_w         
	  7.000e-02  moles
	                                   Mole                     Log
	Species               Moles    Fraction    Molality    Molality

	Hfo_wOH           5.052e-02       0.722   5.052e-02      -1.297
	Hfo_wOH2+         1.216e-02       0.174   1.217e-02      -1.915
	Hfo_wO-           4.806e-03       0.069   4.806e-03      -2.318
	Hfo_wOHSO4-2      2.243e-03       0.032   2.243e-03      -2.649
	Hfo_wSO4-         2.707e-04       0.004   2.707e-04      -3.567
	Hfo_wOCa+         1.016e-13       0.000   1.016e-13     -12.993
	Hfo_wOMg+         6.016e-14       0.000   6.016e-14     -13.221

-----------------------------Exchange composition------------------------------

X                1.000e+00 mol

	                               Equiv-    Equivalent      Log 
	Species             Moles      alents      Fraction     Gamma

	CaX2              3.614e-01   7.229e-01   7.229e-01    -0.172
	MgX2              1.381e-01   2.762e-01   2.762e-01    -0.182
	NaX               9.203e-04   9.203e-04   9.203e-04    -0.046

-----------------------------Solution composition------------------------------

	Elements           Molality       Moles

	C                 7.158e-03   7.157e-03
	Ca                2.038e-03   2.038e-03
	Cl                1.337e-04   1.337e-04
	Mg                1.236e-03   1.236e-03
	Na                1.227e-04   1.227e-04
	S                 2.353e-04   2.353e-04

----------------------------Description of solution----------------------------

                                       pH  =   7.037      Charge balance
                                       pe  =   4.000      Adjusted to redox equilibrium
       Specific Conductance (uS/cm, 25 oC) = 612
                          Density (g/cm3)  =   0.99748
                               Volume (L)  =   1.00340
                        Activity of water  =   1.000
                           Ionic strength  =   1.018e-02
                       Mass of water (kg)  =   9.999e-01
                 Total alkalinity (eq/kg)  =   6.065e-03
                       Total CO2 (mol/kg)  =   7.158e-03
                      Temperature (deg C)  =  25.00
                  Electrical balance (eq)  =   4.111e-08
 Percent error, 100*(Cat-|An|)/(Cat+|An|)  =   0.00
                               Iterations  =  13
                         Gamma iterations  =   3
                      Osmotic coefficient  =   0.94026
                         Density of water  =   0.99704
                                  Total H  = 1.110125e+02
                                  Total O  = 5.552452e+01

----------------------------Distribution of species----------------------------

                                                    MacInnes  MacInnes
                                MacInnes       Log       Log       Log    mole V
   Species          Molality    Activity  Molality  Activity     Gamma   cm3/mol

   OH-             1.256e-07   1.103e-07    -6.901    -6.957    -0.056     -4.03
   H+              1.022e-07   9.174e-08    -6.990    -7.037    -0.047      0.00
   H2O             5.551e+01   9.998e-01     1.744    -0.000     0.000     18.07
C(4)          7.158e-03
   HCO3-           6.053e-03   5.461e-03    -2.218    -2.263    -0.045     24.83
   CO2             1.099e-03   1.100e-03    -2.959    -2.959     0.001     29.09
   CO3-2           4.341e-06   2.726e-06    -5.362    -5.565    -0.202     -3.40
   MgCO3           1.874e-06   1.874e-06    -5.727    -5.727     0.000    -17.09
Ca            2.038e-03
   Ca+2            2.038e-03   1.370e-03    -2.691    -2.863    -0.172    -17.92
Cl            1.337e-04
   Cl-             1.337e-04   1.203e-04    -3.874    -3.920    -0.046     18.14
Mg            1.236e-03
   Mg+2            1.234e-03   8.115e-04    -2.909    -3.091    -0.182    -21.61
   MgCO3           1.874e-06   1.874e-06    -5.727    -5.727     0.000    -17.09
   MgOH+           1.530e-08   1.373e-08    -7.815    -7.862    -0.047     (0)  
Na            1.227e-04
   Na+             1.227e-04   1.103e-04    -3.911    -3.958    -0.046     -1.31
S(6)          2.353e-04
   SO4-2           2.353e-04   1.305e-04    -3.628    -3.884    -0.256     14.42
   HSO4-           1.263e-09   1.140e-09    -8.898    -8.943    -0.044     40.34

------------------------------Saturation indices-------------------------------

	Phase               SI   log IAP   log K(298 K,   1 atm)

	Anhydrite        -2.52     -6.75   -4.22  CaSO4
	Aragonite        -0.21     -8.43   -8.22  CaCO3
	Bischofite      -15.39    -10.93    4.46  MgCl2:6H2O
	Bloedite        -16.43    -18.77   -2.35  Na2Mg(SO4)2:4H2O
	Brucite          -6.13    -17.01  -10.88  Mg(OH)2
	Burkeite        -36.31    -37.08   -0.77  Na6CO3(SO4)2
	Calcite          -0.02     -8.43   -8.41  CaCO3
	CO2(g)           -1.50     -2.96   -1.46  CO2
	Dolomite          0.00    -17.08  -17.08  CaMg(CO3)2
	Epsomite         -5.09     -6.98   -1.88  MgSO4:7H2O
	Gaylussite      -12.49    -21.91   -9.42  CaNa2(CO3)2:5H2O
	Glauberite      -13.30    -18.55   -5.25  Na2Ca(SO4)2
	Gypsum           -2.17     -6.75   -4.58  CaSO4:2H2O
	H2O(g)           -1.50     -0.00    1.50  H2O
	Halite           -9.45     -7.88    1.57  NaCl
	Hexahydrite      -5.34     -6.98   -1.63  MgSO4:6H2O
	Kieserite        -6.85     -6.98   -0.12  MgSO4:H2O
	Labile_S        -24.67    -30.35   -5.67  Na4Ca(SO4)3:2H2O
	Leonhardite      -6.09     -6.98   -0.89  MgSO4:4H2O
	Magnesite        -0.82     -8.66   -7.83  MgCO3
	Mirabilite      -10.59    -11.80   -1.21  Na2SO4:10H2O
	Nahcolite        -5.82    -16.56  -10.74  NaHCO3
	Natron          -12.66    -13.48   -0.82  Na2CO3:10H2O
	Nesquehonite     -3.49     -8.66   -5.17  MgCO3:3H2O
	Pentahydrite     -5.69     -6.98   -1.28  MgSO4:5H2O
	Pirssonite      -12.67    -21.91   -9.23  Na2Ca(CO3)2:2H2O
	Portlandite     -11.59    -16.78   -5.19  Ca(OH)2
	Thenardite      -11.45    -11.80   -0.35  Na2SO4
	Trona           -18.66    -30.04  -11.38  Na3H(CO3)2:2H2O


Beginning of advection time step 200, cumulative pore volumes 200.000000.

Cell 1.

Using solution 1.	Solution after simulation 2.
Using exchange 1.	Exchange assemblage after simulation 3.
Using surface 1.	
Using pure phase assemblage 1.	Pure-phase assemblage after simulation 3.

-------------------------------Phase assemblage--------------------------------

                                                      Moles in assemblage
Phase               SI  log IAP  log K(T, P)   Initial       Final       Delta

Calcite          -0.02    -8.43     -8.41    0.000e+00           0   0.000e+00
Dolomite          0.00   -17.08    -17.08    1.583e+00   1.583e+00   3.304e-06

------------------------------Surface composition------------------------------

Hfo           
	  2.604e-03  Surface charge, eq
	  1.396e-02  sigma, C/m**2
	  5.152e-02  psi, V
	 -2.005e+00  -F*psi/RT
	  1.346e-01  exp(-F*psi/RT)
	  6.000e+02  specific area, m**2/g
	  1.800e+04  m**2 for   3.000e+01 g


Hfo_w         
	  7.000e-02  moles
	                                   Mole                     Log
	Species               Moles    Fraction    Molality    Molality

	Hfo_wOH           5.052e-02       0.722   5.052e-02      -1.297
	Hfo_wOH2+         1.216e-02       0.174   1.217e-02      -1.915
	Hfo_wO-           4.806e-03       0.069   4.806e-03      -2.318
	Hfo_wOHSO4-2      2.242e-03       0.032   2.242e-03      -2.649
	Hfo_wSO4-         2.707e-04       0.004   2.707e-04      -3.568
	Hfo_wOCa+         1.016e-13       0.000   1.016e-13     -12.993
	Hfo_wOMg+         6.014e-14       0.000   6.014e-14     -13.221

-----------------------------Exchange composition------------------------------

X                1.000e+00 mol

	                               Equiv-    Equivalent      Log 
	Species             Moles      alents      Fraction     Gamma

	CaX2              3.615e-01   7.230e-01   7.230e-01    -0.172
	MgX2              1.380e-01   2.760e-01   2.760e-01    -0.182
	NaX               9.202e-04   9.202e-04   9.202e-04    -0.046

-----------------------------Solution composition------------------------------

	Elements           Molality       Moles

	C                 7.158e-03   7.157e-03
	Ca                2.038e-03   2.038e-03
	Cl                1.337e-04   1.337e-04
	Mg                1.235e-03   1.235e-03
	Na                1.227e-04   1.227e-04
	S                 2.353e-04   2.353e-04

----------------------------Description of solution----------------------------

                                       pH  =   7.037      Charge balance
                                       pe  =   4.000      Adjusted to redox equilibrium
       Specific Conductance (uS/cm, 25 oC) = 612
                          Density (g/cm3)  =   0.99748
                               Volume (L)  =   1.00340
                        Activity of water  =   1.000
                           Ionic strength  =   1.018e-02
                       Mass of water (kg)  =   9.999e-01
                 Total alkalinity (eq/kg)  =   6.065e-03
                       Total CO2 (mol/kg)  =   7.158e-03
                      Temperature (deg C)  =  25.00
                  Electrical balance (eq)  =   4.089e-08
 Percent error, 100*(Cat-|An|)/(Cat+|An|)  =   0.00
                               Iterations  =  13
                         Gamma iterations  =   3
                      Osmotic coefficient  =   0.94026
                         Density of water  =   0.99704
                                  Total H  = 1.110125e+02
                                  Total O  = 5.552452e+01

----------------------------Distribution of species----------------------------

                                                    MacInnes  MacInnes
                                MacInnes       Log       Log       Log    mole V
   Species          Molality    Activity  Molality  Activity     Gamma   cm3/mol

   OH-             1.256e-07   1.103e-07    -6.901    -6.957    -0.056     -4.03
   H+              1.022e-07   9.173e-08    -6.990    -7.037    -0.047      0.00
   H2O             5.551e+01   9.998e-01     1.744    -0.000     0.000     18.07
C(4)          7.158e-03
   HCO3-           6.053e-03   5.461e-03    -2.218    -2.263    -0.045     24.83
   CO2             1.099e-03   1.100e-03    -2.959    -2.959     0.001     29.09
   CO3-2           4.342e-06   2.726e-06    -5.362    -5.565    -0.202     -3.40
   MgCO3           1.874e-06   1.874e-06    -5.727    -5.727     0.000    -17.09
Ca            2.038e-03
   Ca+2            2.038e-03   1.371e-03    -2.691    -2.863    -0.172    -17.92
Cl            1.337e-04
   Cl-             1.337e-04   1.203e-04    -3.874    -3.920    -0.046     18.14
Mg            1.235e-03
   Mg+2            1.233e-03   8.111e-04    -2.909    -3.091    -0.182    -21.61
   MgCO3           1.874e-06   1.874e-06    -5.727    -5.727     0.000    -17.09
   MgOH+           1.530e-08   1.372e-08    -7.815    -7.863    -0.047     (0)  
Na            1.227e-04
   Na+             1.227e-04   1.103e-04    -3.911    -3.958    -0.046     -1.31
S(6)          2.353e-04
   SO4-2           2.353e-04   1.305e-04    -3.628    -3.884    -0.256     14.42
   HSO4-           1.263e-09   1.140e-09    -8.899    -8.943    -0.044     40.34

------------------------------Saturation indices-------------------------------

	Phase               SI   log IAP   log K(298 K,   1 atm)

	Anhydrite        -2.52     -6.75   -4.22  CaSO4
	Aragonite        -0.21     -8.43   -8.22  CaCO3
	Bischofite      -15.39    -10.93    4.46  MgCl2:6H2O
	Bloedite        -16.43    -18.78   -2.35  Na2Mg(SO4)2:4H2O
	Brucite          -6.13    -17.01  -10.88  Mg(OH)2
	Burkeite        -36.31    -37.08   -0.77  Na6CO3(SO4)2
	Calcite          -0.02     -8.43   -8.41  CaCO3
	CO2(g)           -1.50     -2.96   -1.46  CO2
	Dolomite          0.00    -17.08  -17.08  CaMg(CO3)2
	Epsomite         -5.10     -6.98   -1.88  MgSO4:7H2O
	Gaylussite      -12.49    -21.91   -9.42  CaNa2(CO3)2:5H2O
	Glauberite      -13.30    -18.55   -5.25  Na2Ca(SO4)2
	Gypsum           -2.17     -6.75   -4.58  CaSO4:2H2O
	H2O(g)           -1.50     -0.00    1.50  H2O
	Halite           -9.45     -7.88    1.57  NaCl
	Hexahydrite      -5.34     -6.98   -1.63  MgSO4:6H2O
	Kieserite        -6.85     -6.98   -0.12  MgSO4:H2O
	Labile_S        -24.67    -30.35   -5.67  Na4Ca(SO4)3:2H2O
	Leonhardite      -6.09     -6.98   -0.89  MgSO4:4H2O
	Magnesite        -0.82     -8.66   -7.83  MgCO3
	Mirabilite      -10.59    -11.80   -1.21  Na2SO4:10H2O
	Nahcolite        -5.82    -16.56  -10.74  NaHCO3
	Natron          -12.66    -13.48   -0.82  Na2CO3:10H2O
	Nesquehonite     -3.49     -8.66   -5.17  MgCO3:3H2O
	Pentahydrite     -5.69     -6.98   -1.28  MgSO4:5H2O
	Pirssonite      -12.67    -21.91   -9.23  Na2Ca(CO3)2:2H2O
	Portlandite     -11.59    -16.78   -5.19  Ca(OH)2
	Thenardite      -11.45    -11.80   -0.35  Na2SO4
	Trona           -18.66    -30.04  -11.38  Na3H(CO3)2:2H2O


------------------
End of simulation.
------------------

------------------------------------
Reading input data for simulation 4.
------------------------------------

------------------------------
End of Run after 1.91 Seconds.
------------------------------

