WARNING: Database file from DATABASE keyword is used; command line argument ignored.
   Input file: ex13_impl
  Output file: ex13_impl.out
Database file: ../database/wateq4f.dat

------------------
Reading data base.
------------------

	SOLUTION_MASTER_SPECIES
	SOLUTION_SPECIES
	PHASES
	EXCHANGE_MASTER_SPECIES
	EXCHANGE_SPECIES
	SURFACE_MASTER_SPECIES
	SURFACE_SPECIES
	RATES
	END
------------------------------------
Reading input data for simulation 1.
------------------------------------

	DATABASE ../database/wateq4f.dat
	SELECTED_OUTPUT 101
	    file                 ex13_impl_101.sel
	USER_PUNCH 101
	    headings Mu SC
	    start
	10 PUNCH STR_F$(MU, 20, 12)
	20 PUNCH STR_F$(SC, 20, 10)
	    end
	TITLE Example 13A.--1 mmol/l NaCl/NO3 diffuses in column with stagnant zones.
	SOLUTION 0    # 1 mmol/l NaCl
	   units   mmol/l
	   pH       7.0
	   pe      13.0    O2(g)   -0.7
	   Na       1.0    # Na has Retardation = 2
	   Cl       1.0    # Cl has Retardation = 1, stagnant exchange
	   water 1
	COPY solution 0 100
	END
-----
TITLE
-----

 Example 13A.--1 mmol/l NaCl/NO3 diffuses in column with stagnant zones.

-------------------------------------------
Beginning of initial solution calculations.
-------------------------------------------

Initial solution 0.	

-----------------------------Solution composition------------------------------

	Elements           Molality       Moles

	Cl                1.000e-03   1.000e-03
	Na                1.000e-03   1.000e-03

----------------------------Description of solution----------------------------

                                       pH  =   7.000    
                                       pe  =  13.622      Equilibrium with O2(g)
                        Activity of water  =   1.000
                 Ionic strength (mol/kgw)  =   1.000e-03
                       Mass of water (kg)  =   1.000e+00
                 Total alkalinity (eq/kg)  =   3.020e-10
                         Temperature (°C)  =  25.00
                  Electrical balance (eq)  =  -3.020e-10
 Percent error, 100*(Cat-|An|)/(Cat+|An|)  =  -0.00
                               Iterations  =   3
                                  Total H  = 1.110124e+02
                                  Total O  = 5.550673e+01

----------------------------Distribution of species----------------------------

                                               Log       Log       Log    mole V
   Species          Molality    Activity  Molality  Activity     Gamma   cm³/mol

   OH-             1.038e-07   1.001e-07    -6.984    -7.000    -0.016     (0)  
   H+              1.035e-07   1.000e-07    -6.985    -7.000    -0.015      0.00
   H2O             5.551e+01   1.000e+00     1.744    -0.000     0.000     18.07
Cl            1.000e-03
   Cl-             1.000e-03   9.649e-04    -3.000    -3.016    -0.016     (0)  
H(0)          0.000e+00
   H2              0.000e+00   0.000e+00   -44.394   -44.394     0.000     (0)  
Na            1.000e-03
   Na+             1.000e-03   9.652e-04    -3.000    -3.015    -0.015     (0)  
O(0)          5.112e-04
   O2              2.556e-04   2.556e-04    -3.592    -3.592     0.000     (0)  

------------------------------Saturation indices-------------------------------

  Phase               SI** log IAP   log K(298 K,   1 atm)

  H2(g)           -41.24    -44.39   -3.15  H2
  H2O(g)           -1.51     -0.00    1.51  H2O
  Halite           -7.61     -6.03    1.58  NaCl
  O2(g)            -0.70     -3.59   -2.89  O2

**For a gas, SI = log10(fugacity). Fugacity = pressure * phi / 1 atm.
  For ideal gases, phi = 1.

------------------
End of simulation.
------------------

------------------------------------
Reading input data for simulation 2.
------------------------------------

	SOLUTION 1-11  # Column with KNO3
	   units   mmol/l
	   pH       7.0
	   pe      13.0   O2(g)    -0.7
	   K        1.0
	   N(5)     1.0
	   water 1
	SOLUTION_MIX 12-21
	 1 0.333
	END
-------------------------------------------
Beginning of initial solution calculations.
-------------------------------------------

Initial solution 1.	

-----------------------------Solution composition------------------------------

	Elements           Molality       Moles

	K                 1.000e-03   1.000e-03
	N(5)              1.000e-03   1.000e-03

----------------------------Description of solution----------------------------

                                       pH  =   7.000    
                                       pe  =  13.622      Equilibrium with O2(g)
                        Activity of water  =   1.000
                 Ionic strength (mol/kgw)  =   1.000e-03
                       Mass of water (kg)  =   1.000e+00
                 Total alkalinity (eq/kg)  =   3.020e-10
                         Temperature (°C)  =  25.00
                  Electrical balance (eq)  =  -3.020e-10
 Percent error, 100*(Cat-|An|)/(Cat+|An|)  =  -0.00
                               Iterations  =   3
                                  Total H  = 1.110124e+02
                                  Total O  = 5.550973e+01

----------------------------Distribution of species----------------------------

                                               Log       Log       Log    mole V
   Species          Molality    Activity  Molality  Activity     Gamma   cm³/mol

   OH-             1.038e-07   1.001e-07    -6.984    -7.000    -0.016     (0)  
   H+              1.035e-07   1.000e-07    -6.985    -7.000    -0.015      0.00
   H2O             5.551e+01   1.000e+00     1.744    -0.000     0.000     18.07
H(0)          0.000e+00
   H2              0.000e+00   0.000e+00   -44.394   -44.394     0.000     (0)  
K             1.000e-03
   K+              1.000e-03   9.649e-04    -3.000    -3.016    -0.016     (0)  
N(5)          1.000e-03
   NO3-            1.000e-03   9.647e-04    -3.000    -3.016    -0.016     (0)  
O(0)          5.112e-04
   O2              2.556e-04   2.556e-04    -3.592    -3.592     0.000     (0)  

------------------------------Saturation indices-------------------------------

  Phase               SI** log IAP   log K(298 K,   1 atm)

  H2(g)           -41.24    -44.39   -3.15  H2
  H2O(g)           -1.51     -0.00    1.51  H2O
  O2(g)            -0.70     -3.59   -2.89  O2

**For a gas, SI = log10(fugacity). Fugacity = pressure * phi / 1 atm.
  For ideal gases, phi = 1.

------------------
End of simulation.
------------------

------------------------------------
Reading input data for simulation 3.
------------------------------------

	EXCHANGE_SPECIES # For linear exchange, make KX exch. coeff. equal to NaX
	   K+ + X- = KX
	   log_k   0.0
	EXCHANGE 12-21
	   equilibrate  1
	   X       1.e-3
	   exchange_gammas false
	COPY solution 1 101
	COPY solution 12 112
	COPY exchange 12 112
	END
-------------------------------------------------------
Beginning of initial exchange-composition calculations.
-------------------------------------------------------

Exchange 12.	

X                1.000e-03 mol

	                               Equiv-    Equivalent      Log 
	Species             Moles      alents      Fraction     Gamma

	KX                9.990e-04   9.990e-04   9.990e-01     0.000
	HX                1.035e-06   1.035e-06   1.035e-03     0.000

------------------
End of simulation.
------------------

------------------------------------
Reading input data for simulation 4.
------------------------------------

	MIX 0
	  12 0
	MIX 1 
	 12 0.25
	MIX 2 
	 13 0.25
	MIX 3 
	 14 0.25
	MIX 4 
	 15 0.25
	MIX 5 
	 16 0.25
	MIX 6 
	 17 0.25
	MIX 7 
	 18 0.25
	MIX 8 
	 19 0.25
	MIX 9 
	 20 0.25
	MIX 10
	 21 0.25
	MIX 11
	 21 0
	USE mix none
	END
------------------
End of simulation.
------------------

------------------------------------
Reading input data for simulation 5.
------------------------------------

	PRINT
	   reset false
WARNING: Cell-lengths were read for 1 cells. Last value is used till cell 10.
WARNING: No dispersivities were read; disp = 0 assumed.
WARNING: No porosities were read; used the value 3.00e-01 from -multi_D.
WARNING: No porosities were read; used the value 3.00e-01 from -multi_D.
-------------------------------
End of Run after 1.611 Seconds.
-------------------------------

