WARNING: Database file from DATABASE keyword is used; command line argument ignored.
   Input file: ex17mp
  Output file: ex17mp.out
Database file: ../database/phreeqc.dat

------------------
Reading data base.
------------------

	SOLUTION_MASTER_SPECIES
	SOLUTION_SPECIES
	PHASES
	GAS_BINARY_PARAMETERS
	EXCHANGE_MASTER_SPECIES
	EXCHANGE_SPECIES
	SURFACE_MASTER_SPECIES
	SURFACE_SPECIES
	MEAN_GAMMAS
	RATES
	END
------------------------------------
Reading input data for simulation 1.
------------------------------------

	DATABASE ../database/phreeqc.dat
	SELECTED_OUTPUT 101
	    file                 ex17mp_101.sel
	USER_PUNCH 101
	    headings Mu SC
	    start
	10 PUNCH STR_F$(MU, 20, 12)
	20 PUNCH STR_F$(SC, 20, 10)
	    end
	TITLE Example 17.--Inverse modeling of Black Sea water evaporation
	SOLUTION 1  Black Sea water
	        units   mg/L
	        density 1.014
	        pH      8.0     # estimated
	        Ca      233
	        Mg      679
	        Na      5820
	        K       193
	        S(6)    1460
	        Cl      10340
	        Br      35
	        C       1       CO2(g) -3.5
	SOLUTION 2  Composition during halite precipitation
	        units   mg/L
	        density 1.271
	        pH      5.0     # estimated
	        Ca      0.0 
	        Mg      50500
	        Na      55200
	        K       15800
	        S(6)    76200
	        Cl      187900
	        Br      2670
	        C       1       CO2(g) -3.5
	END
-----
TITLE
-----

 Example 17.--Inverse modeling of Black Sea water evaporation

-------------------------------------------
Beginning of initial solution calculations.
-------------------------------------------

Initial solution 1.	Black Sea water

-----------------------------Solution composition------------------------------

	Elements           Molality       Moles

	Br                4.401e-04   4.401e-04
	C                 8.350e-04   8.350e-04  Equilibrium with CO2(g)
	Ca                5.841e-03   5.841e-03
	Cl                2.930e-01   2.930e-01
	K                 4.959e-03   4.959e-03
	Mg                2.806e-02   2.806e-02
	Na                2.544e-01   2.544e-01
	S(6)              1.527e-02   1.527e-02

----------------------------Description of solution----------------------------

                                       pH  =   8.000    
                                       pe  =   4.000    
      Specific Conductance (µS/cm,  25°C)  = 29850
                          Density (g/cm³)  =   1.01091
                               Volume (L)  =   1.00790
                        Viscosity (mPa s)  =   0.92514
                        Activity of water  =   0.990
                 Ionic strength (mol/kgw)  =   3.528e-01
                       Mass of water (kg)  =   1.000e+00
                 Total alkalinity (eq/kg)  =   8.588e-04
                       Total CO2 (mol/kg)  =   8.350e-04
                         Temperature (°C)  =  25.00
                  Electrical balance (eq)  =   2.243e-03
 Percent error, 100*(Cat-|An|)/(Cat+|An|)  =   0.36
                               Iterations  =   5
                                  Total H  = 1.110132e+02
                                  Total O  = 5.556980e+01

----------------------------Distribution of species----------------------------

                                               Log       Log       Log    mole V
   Species          Molality    Activity  Molality  Activity     Gamma   cm³/mol

   OH-             1.517e-06   1.002e-06    -5.819    -5.999    -0.180     -3.19
   H+              1.288e-08   1.000e-08    -7.890    -8.000    -0.110      0.00
   H2O             5.551e+01   9.899e-01     1.744    -0.004     0.000     18.07
Br            4.401e-04
   Br-             4.401e-04   2.940e-04    -3.356    -3.532    -0.175     25.05
C(-4)         0.000e+00
   CH4             0.000e+00   0.000e+00   -76.604   -76.569     0.035     35.46
C(4)          8.350e-04
   HCO3-           6.654e-04   4.738e-04    -3.177    -3.324    -0.148     25.43
   NaHCO3          6.364e-05   7.487e-05    -4.196    -4.126     0.071     31.73
   MgHCO3+         6.245e-05   4.221e-05    -4.204    -4.375    -0.170      5.76
   MgCO3           1.488e-05   1.614e-05    -4.827    -4.792     0.035    -17.09
   CO2             1.020e-05   1.076e-05    -4.991    -4.968     0.023     34.43
   CO3-2           8.645e-06   2.222e-06    -5.063    -5.653    -0.590     -1.57
   CaCO3           5.236e-06   5.679e-06    -5.281    -5.246     0.035    -14.60
   CaHCO3+         3.835e-06   2.781e-06    -5.416    -5.556    -0.140      9.91
   KHCO3           6.814e-07   6.867e-07    -6.167    -6.163     0.003     41.03
   (CO2)2          1.959e-12   2.125e-12   -11.708   -11.673     0.035     68.87
Ca            5.841e-03
   Ca+2            5.464e-03   1.522e-03    -2.263    -2.818    -0.555    -16.99
   CaSO4           3.684e-04   3.820e-04    -3.434    -3.418     0.016      7.22
   CaCO3           5.236e-06   5.679e-06    -5.281    -5.246     0.035    -14.60
   CaHCO3+         3.835e-06   2.781e-06    -5.416    -5.556    -0.140      9.91
   CaOH+           3.420e-08   2.500e-08    -7.466    -7.602    -0.136     (0)  
   CaHSO4+         4.379e-11   3.201e-11   -10.359   -10.495    -0.136     (0)  
Cl            2.930e-01
   Cl-             2.930e-01   1.975e-01    -0.533    -0.704    -0.171     18.59
   HCl             4.815e-10   6.804e-10    -9.317    -9.167     0.150     (0)  
H(0)          1.305e-27
   H2              6.527e-28   7.079e-28   -27.185   -27.150     0.035     28.61
K             4.959e-03
   K+              4.852e-03   3.245e-03    -2.314    -2.489    -0.175      9.46
   KSO4-           1.069e-04   8.885e-05    -3.971    -4.051    -0.080     31.30
   KHCO3           6.814e-07   6.867e-07    -6.167    -6.163     0.003     41.03
Mg            2.806e-02
   Mg+2            2.486e-02   7.614e-03    -1.604    -2.118    -0.514    -20.71
   MgSO4           3.050e-03   3.588e-03    -2.516    -2.445     0.071     -0.40
   Mg(SO4)2-2      6.658e-05   2.127e-05    -4.177    -4.672    -0.496     46.73
   MgHCO3+         6.245e-05   4.221e-05    -4.204    -4.375    -0.170      5.76
   MgCO3           1.488e-05   1.614e-05    -4.827    -4.792     0.035    -17.09
   MgOH+           3.722e-06   2.737e-06    -5.429    -5.563    -0.134     (0)  
Na            2.544e-01
   Na+             2.503e-01   1.815e-01    -0.601    -0.741    -0.140     -0.76
   NaSO4-          3.980e-03   2.869e-03    -2.400    -2.542    -0.142     20.16
   NaHCO3          6.364e-05   7.487e-05    -4.196    -4.126     0.071     31.73
   Na2SO4          2.362e-07   2.538e-07    -6.627    -6.596     0.031     47.96
O(0)          1.564e-38
   O2              7.822e-39   8.484e-39   -38.107   -38.071     0.035     30.40
S(6)          1.527e-02
   SO4-2           7.633e-03   1.800e-03    -2.117    -2.745    -0.627     16.07
   NaSO4-          3.980e-03   2.869e-03    -2.400    -2.542    -0.142     20.16
   MgSO4           3.050e-03   3.588e-03    -2.516    -2.445     0.071     -0.40
   CaSO4           3.684e-04   3.820e-04    -3.434    -3.418     0.016      7.22
   KSO4-           1.069e-04   8.885e-05    -3.971    -4.051    -0.080     31.30
   Mg(SO4)2-2      6.658e-05   2.127e-05    -4.177    -4.672    -0.496     46.73
   Na2SO4          2.362e-07   2.538e-07    -6.627    -6.596     0.031     47.96
   HSO4-           2.393e-09   1.750e-09    -8.621    -8.757    -0.136     40.78
   CaHSO4+         4.379e-11   3.201e-11   -10.359   -10.495    -0.136     (0)  

------------------------------Saturation indices-------------------------------

  Phase               SI** log IAP   log K(298 K,   1 atm)

  Anhydrite        -1.25     -5.56   -4.31  CaSO4
  Aragonite        -0.13     -8.47   -8.34  CaCO3
  Arcanite         -5.84     -7.72   -1.88  K2SO4
  Calcite           0.01     -8.47   -8.48  CaCO3
  CH4(g)          -73.77    -76.57   -2.80  CH4
  CO2(g)           -3.50     -4.97   -1.47  CO2	 Pressure   0.0 atm, phi 1.000
  Dolomite          0.84    -16.24  -17.08  CaMg(CO3)2
  Epsomite         -3.16     -4.89   -1.74  MgSO4:7H2O
  Gypsum           -1.02     -5.57   -4.55  CaSO4:2H2O
  H2(g)           -24.05    -27.15   -3.10  H2
  H2O(g)           -1.51     -0.00    1.50  H2O
  Halite           -3.02     -1.45    1.57  NaCl
  Hexahydrite      -3.32     -4.89   -1.57  MgSO4:6H2O
  Kieserite        -3.71     -4.87   -1.16  MgSO4:H2O
  Mirabilite       -3.57     -4.27   -0.71  Na2SO4:10H2O
  O2(g)           -35.18    -38.07   -2.89  O2
  Sylvite          -4.09     -3.19    0.90  KCl
  Thenardite       -4.88     -4.23    0.65  Na2SO4

**For a gas, SI = log10(fugacity). Fugacity = pressure * phi / 1 atm.
  For ideal gases, phi = 1.

Initial solution 2.	Composition during halite precipitation

-----------------------------Solution composition------------------------------

	Elements           Molality       Moles

	Br                3.785e-02   3.785e-02
	C                 1.311e-04   1.311e-04  Equilibrium with CO2(g)
	Cl                6.004e+00   6.004e+00
	K                 4.578e-01   4.578e-01
	Mg                2.353e+00   2.353e+00
	Na                2.720e+00   2.720e+00
	S(6)              8.986e-01   8.986e-01

----------------------------Description of solution----------------------------

                                       pH  =   5.000    
                                       pe  =   4.000    
      Specific Conductance (µS/cm,  25°C)  = 133099
                          Density (g/cm³)  =   1.27490
                               Volume (L)  =   1.12939
                        Viscosity (mPa s)  =   4.72551
                        Activity of water  =   0.802
                 Ionic strength (mol/kgw)  =   9.120e+00
                       Mass of water (kg)  =   1.000e+00
                 Total alkalinity (eq/kg)  =   1.203e-04
                       Total CO2 (mol/kg)  =   1.311e-04
                         Temperature (°C)  =  25.00
                  Electrical balance (eq)  =   4.478e-02
 Percent error, 100*(Cat-|An|)/(Cat+|An|)  =   0.33
                               Iterations  =  13 (18 overall)
                                  Total H  = 1.110126e+02
                                  Total O  = 5.910102e+01

----------------------------Distribution of species----------------------------

                                               Log       Log       Log    mole V
   Species          Molality    Activity  Molality  Activity     Gamma   cm³/mol

   H+              1.429e-05   1.000e-05    -4.845    -5.000    -0.155      0.00
   OH-             1.794e-09   8.116e-10    -8.746    -9.091    -0.344      8.65
   H2O             5.551e+01   8.019e-01     1.744    -0.096     0.000     18.07
Br            3.785e-02
   Br-             3.785e-02   3.991e-02    -1.422    -1.399     0.023     26.43
C(-4)         0.000e+00
   CH4             0.000e+00   0.000e+00   -53.298   -52.386     0.912     35.46
C(4)          1.311e-04
   MgHCO3+         1.277e-04   6.253e-05    -3.894    -4.204    -0.310      6.02
   CO2             2.691e-06   1.076e-05    -5.570    -4.968     0.602     34.43
   HCO3-           6.704e-07   3.838e-07    -6.174    -6.416    -0.242     40.65
   KHCO3           3.989e-08   4.860e-08    -7.399    -7.313     0.086     41.03
   NaHCO3          3.709e-08   2.473e-06    -7.431    -5.607     1.824     31.73
   MgCO3           2.929e-09   2.391e-08    -8.533    -7.621     0.912    -17.09
   CO3-2           1.676e-11   1.800e-12   -10.776   -11.745    -0.969     12.37
   (CO2)2          2.603e-13   2.125e-12   -12.585   -11.673     0.912     68.87
Cl            6.004e+00
   Cl-             6.004e+00   3.969e+00     0.778     0.599    -0.180     20.50
   HCl             1.797e-09   1.367e-05    -8.745    -4.864     3.881     (0)  
H(0)          1.734e-22
   H2              8.670e-23   7.079e-22   -22.062   -21.150     0.912     28.61
K             4.578e-01
   K+              4.573e-01   2.835e-01    -0.340    -0.547    -0.208     13.48
   KSO4-           4.613e-04   1.427e-02    -3.336    -1.846     1.490     63.82
   KHCO3           3.989e-08   4.860e-08    -7.399    -7.313     0.086     41.03
Mg            2.353e+00
   Mg+2            1.880e+00   1.392e+01     0.274     1.144     0.870    -16.43
   Mg(SO4)2-2      2.921e-01   1.314e-01    -0.534    -0.881    -0.347     57.80
   MgSO4           1.809e-01   1.206e+01    -0.743     1.081     1.824     -0.40
   MgHCO3+         1.277e-04   6.253e-05    -3.894    -4.204    -0.310      6.02
   MgOH+           6.526e-06   4.054e-06    -5.185    -5.392    -0.207     (0)  
   MgCO3           2.929e-09   2.391e-08    -8.533    -7.621     0.912    -17.09
Na            2.720e+00
   Na+             2.670e+00   7.398e+00     0.426     0.869     0.443      1.87
   NaSO4-          5.003e-02   2.150e-01    -1.301    -0.668     0.633     38.16
   Na2SO4          1.209e-04   7.756e-04    -3.917    -3.110     0.807     47.96
   NaHCO3          3.709e-08   2.473e-06    -7.431    -5.607     1.824     31.73
O(0)          0.000e+00
   O2              0.000e+00   0.000e+00   -51.166   -50.254     0.912     30.40
S(6)          8.986e-01
   Mg(SO4)2-2      2.921e-01   1.314e-01    -0.534    -0.881    -0.347     57.80
   MgSO4           1.809e-01   1.206e+01    -0.743     1.081     1.824     -0.40
   SO4-2           8.281e-02   3.308e-03    -1.082    -2.480    -1.398     40.20
   NaSO4-          5.003e-02   2.150e-01    -1.301    -0.668     0.633     38.16
   KSO4-           4.613e-04   1.427e-02    -3.336    -1.846     1.490     63.82
   Na2SO4          1.209e-04   7.756e-04    -3.917    -3.110     0.807     47.96
   HSO4-           3.127e-07   3.216e-06    -6.505    -5.493     1.012     42.31

------------------------------Saturation indices-------------------------------

  Phase               SI** log IAP   log K(298 K,   1 atm)

  Arcanite         -1.70     -3.58   -1.88  K2SO4
  CH4(g)          -49.58    -52.39   -2.80  CH4
  CO2(g)           -3.50     -4.97   -1.47  CO2	 Pressure   0.0 atm, phi 1.000
  Epsomite         -0.27     -2.01   -1.74  MgSO4:7H2O
  H2(g)           -18.05    -21.15   -3.10  H2
  H2O(g)           -1.60     -0.10    1.50  H2O
  Halite           -0.10      1.47    1.57  NaCl
  Hexahydrite      -0.35     -1.91   -1.57  MgSO4:6H2O
  Kieserite        -0.27     -1.43   -1.16  MgSO4:H2O
  Mirabilite       -1.00     -1.70   -0.71  Na2SO4:10H2O
  O2(g)           -47.36    -50.25   -2.89  O2
  Sylvite          -0.85      0.05    0.90  KCl
  Thenardite       -1.39     -0.74    0.65  Na2SO4

**For a gas, SI = log10(fugacity). Fugacity = pressure * phi / 1 atm.
  For ideal gases, phi = 1.

------------------
End of simulation.
------------------

------------------------------------
Reading input data for simulation 2.
------------------------------------

	SELECTED_OUTPUT 101
	     active false
	INVERSE_MODELING
	        solutions 1 2
	        uncertainties .025
	        range
	        balances 
	                Br
	                K
	                Mg
	        phases
	                H2O(g)  
	                Calcite 
	                CO2(g)  
	                Gypsum  
	                Halite  
		multiple_precision
	END
---------------------------------------------
Beginning of inverse modeling 1 calculations.
---------------------------------------------

Using Cl1MP multiprecision optimization routine.

Solution 1: Black Sea water

                         Input          Delta    Input+Delta
             pH      8.000e+00  +   0.000e+00  =   8.000e+00
     Alkalinity      8.588e-04  +   0.000e+00  =   8.588e-04
             Br      4.401e-04  +   0.000e+00  =   4.401e-04
          C(-4)      0.000e+00  +   0.000e+00  =   0.000e+00
           C(4)      8.350e-04  +   0.000e+00  =   8.350e-04
             Ca      5.841e-03  +   0.000e+00  =   5.841e-03
             Cl      2.930e-01  +   7.830e-04  =   2.938e-01
           H(0)      0.000e+00  +   0.000e+00  =   0.000e+00
              K      4.959e-03  +   1.034e-04  =   5.063e-03
             Mg      2.806e-02  +  -7.016e-04  =   2.736e-02
             Na      2.544e-01  +   0.000e+00  =   2.544e-01
           O(0)      0.000e+00  +   0.000e+00  =   0.000e+00
          S(-2)      0.000e+00  +   0.000e+00  =   0.000e+00
           S(6)      1.527e-02  +   8.030e-05  =   1.535e-02

Solution 2: Composition during halite precipitation

                         Input          Delta    Input+Delta
             pH      5.000e+00  +   0.000e+00  =   5.000e+00
     Alkalinity      1.203e-04  +   0.000e+00  =   1.203e-04
             Br      3.785e-02  +   9.440e-04  =   3.880e-02
          C(-4)      0.000e+00  +   0.000e+00  =   0.000e+00
           C(4)      1.311e-04  +   0.000e+00  =   1.311e-04
             Ca      0.000e+00  +   0.000e+00  =   0.000e+00
             Cl      6.004e+00  +   1.501e-01  =   6.154e+00
           H(0)      0.000e+00  +   0.000e+00  =   0.000e+00
              K      4.578e-01  +  -1.144e-02  =   4.463e-01
             Mg      2.353e+00  +   5.883e-02  =   2.412e+00
             Na      2.720e+00  +  -4.487e-02  =   2.675e+00
           O(0)      0.000e+00  +   0.000e+00  =   0.000e+00
          S(-2)      0.000e+00  +   0.000e+00  =   0.000e+00
           S(6)      8.986e-01  +  -2.247e-02  =   8.761e-01

Solution fractions:                   Minimum        Maximum
   Solution   1      8.815e+01      8.780e+01      8.815e+01
   Solution   2      1.000e+00      1.000e+00      1.000e+00

Phase mole transfers:                 Minimum        Maximum   Formula             (Approximate SI in solution 1, 2 at 298 K,   1 atm)
         H2O(g)     -4.837e+03     -4.817e+03     -4.817e+03   H2O                        ( -1.51, -1.60)
        Calcite     -3.779e-02     -3.874e-02     -3.670e-02   CaCO3                      (  0.01,      )
         CO2(g)     -3.568e-02     -3.847e-02     -3.276e-02   CO2                        ( -3.50, -3.50)
         Gypsum     -4.771e-01     -4.910e-01     -4.614e-01   CaSO4:2H2O                 ( -1.02,      )
         Halite     -1.975e+01     -2.033e+01     -1.901e+01   NaCl                       ( -3.02, -0.10)

Redox mole transfers:    

Sum of residuals (epsilons in documentation):         1.953e+02
Sum of delta/uncertainty limit:                       7.809e+00
Maximum fractional error in element concentration:    2.500e-02

Model contains minimum number of phases.
===============================================================================


Summary of inverse modeling:

	Number of models found: 1
	Number of minimal models found: 1
	Number of infeasible sets of phases saved: 6
	Number of calls to cl1: 22
------------------
End of simulation.
------------------

------------------------------------
Reading input data for simulation 3.
------------------------------------

