WARNING: Database file from DATABASE keyword is used; command line argument ignored.
   Input file: ex17mp
  Output file: ex17mp.out
Database file: ../database/phreeqc.dat

------------------
Reading data base.
------------------

	SOLUTION_MASTER_SPECIES
	SOLUTION_SPECIES
	PHASES
	GAS_BINARY_PARAMETERS
	EXCHANGE_MASTER_SPECIES
	EXCHANGE_SPECIES
	SURFACE_MASTER_SPECIES
	SURFACE_SPECIES
	MEAN_GAMMAS
	RATES
	END
------------------------------------
Reading input data for simulation 1.
------------------------------------

	DATABASE ../database/phreeqc.dat
	SELECTED_OUTPUT 101
	    file                 ex17mp_101.sel
	USER_PUNCH 101
	    headings Mu SC
	    start
	10 PUNCH STR_F$(MU, 20, 12)
	20 PUNCH STR_F$(SC, 20, 10)
	    end
	TITLE Example 17.--Inverse modeling of Black Sea water evaporation
	SOLUTION 1  Black Sea water
	        units   mg/L
	        density 1.014
	        pH      8.0     # estimated
	        Ca      233
	        Mg      679
	        Na      5820
	        K       193
	        S(6)    1460
	        Cl      10340
	        Br      35
	        C       1       CO2(g) -3.5
	SOLUTION 2  Composition during halite precipitation
	        units   mg/L
	        density 1.271
	        pH      5.0     # estimated
	        Ca      0.0 
	        Mg      50500
	        Na      55200
	        K       15800
	        S(6)    76200
	        Cl      187900
	        Br      2670
	        C       1       CO2(g) -3.5
	END
-----
TITLE
-----

 Example 17.--Inverse modeling of Black Sea water evaporation

-------------------------------------------
Beginning of initial solution calculations.
-------------------------------------------

Initial solution 1.	Black Sea water

-----------------------------Solution composition------------------------------

	Elements           Molality       Moles

	Br                4.401e-04   4.401e-04
	C                 8.359e-04   8.359e-04  Equilibrium with CO2(g)
	Ca                5.841e-03   5.841e-03
	Cl                2.930e-01   2.930e-01
	K                 4.959e-03   4.959e-03
	Mg                2.806e-02   2.806e-02
	Na                2.544e-01   2.544e-01
	S(6)              1.527e-02   1.527e-02

----------------------------Description of solution----------------------------

                                       pH  =   8.000    
                                       pe  =   4.000    
      Specific Conductance (µS/cm,  25°C)  = 29838
                          Density (g/cm³)  =   1.01093
                               Volume (L)  =   1.00788
                        Viscosity (mPa s)  =   0.92643
                        Activity of water  =   0.990
                 Ionic strength (mol/kgw)  =   3.510e-01
                       Mass of water (kg)  =   1.000e+00
                 Total alkalinity (eq/kg)  =   8.602e-04
                       Total CO2 (mol/kg)  =   8.359e-04
                         Temperature (°C)  =  25.00
                  Electrical balance (eq)  =   2.242e-03
 Percent error, 100*(Cat-|An|)/(Cat+|An|)  =   0.36
                               Iterations  =   5
                                  Total H  = 1.110132e+02
                                  Total O  = 5.556980e+01

----------------------------Distribution of species----------------------------

                                               Log       Log       Log    mole V
   Species          Molality    Activity  Molality  Activity     Gamma   cm³/mol

   OH-             1.516e-06   1.002e-06    -5.819    -5.999    -0.180     -3.20
   H+              1.288e-08   1.000e-08    -7.890    -8.000    -0.110      0.00
   H2O             5.551e+01   9.899e-01     1.744    -0.004     0.000     18.07
Br            4.401e-04
   Br-             4.401e-04   2.942e-04    -3.356    -3.531    -0.175     25.05
C(-4)         0.000e+00
   CH4             0.000e+00   0.000e+00   -76.604   -76.569     0.035     35.46
C(4)          8.359e-04
   HCO3-           6.651e-04   4.738e-04    -3.177    -3.324    -0.147     25.43
   MgHCO3+         6.381e-05   4.315e-05    -4.195    -4.365    -0.170      5.76
   NaHCO3          6.320e-05   7.429e-05    -4.199    -4.129     0.070     31.73
   MgCO3           1.522e-05   1.650e-05    -4.818    -4.782     0.035    -17.09
   CO2             1.020e-05   1.076e-05    -4.991    -4.968     0.023     34.43
   CO3-2           8.630e-06   2.222e-06    -5.064    -5.653    -0.589     -1.58
   CaCO3           5.247e-06   5.689e-06    -5.280    -5.245     0.035    -14.60
   CaHCO3+         3.840e-06   2.785e-06    -5.416    -5.555    -0.139      9.91
   KHCO3           6.846e-07   6.898e-07    -6.165    -6.161     0.003     41.03
   (CO2)2          1.960e-12   2.125e-12   -11.708   -11.673     0.035     68.87
Ca            5.841e-03
   Ca+2            5.466e-03   1.524e-03    -2.262    -2.817    -0.555    -17.00
   CaSO4           3.657e-04   3.965e-04    -3.437    -3.402     0.035      7.50
   CaCO3           5.247e-06   5.689e-06    -5.280    -5.245     0.035    -14.60
   CaHCO3+         3.840e-06   2.785e-06    -5.416    -5.555    -0.139      9.91
   CaOH+           3.425e-08   2.504e-08    -7.465    -7.601    -0.136     (0)  
   CaHSO4+         3.565e-11   2.606e-11   -10.448   -10.584    -0.136     (0)  
Cl            2.930e-01
   Cl-             2.930e-01   1.976e-01    -0.533    -0.704    -0.171     18.59
   HCl             4.827e-10   6.808e-10    -9.316    -9.167     0.149     (0)  
H(0)          1.306e-27
   H2              6.530e-28   7.079e-28   -27.185   -27.150     0.035     28.61
K             4.959e-03
   K+              4.871e-03   3.260e-03    -2.312    -2.487    -0.174      9.46
   KSO4-           8.736e-05   7.256e-05    -4.059    -4.139    -0.081     13.50
   KHCO3           6.846e-07   6.898e-07    -6.165    -6.161     0.003     41.03
Mg            2.806e-02
   Mg+2            2.540e-02   7.784e-03    -1.595    -2.109    -0.514    -20.71
   MgSO4           2.537e-03   2.982e-03    -2.596    -2.526     0.070     -7.92
   MgHCO3+         6.381e-05   4.315e-05    -4.195    -4.365    -0.170      5.76
   Mg(SO4)2-2      4.493e-05   1.437e-05    -4.347    -4.843    -0.495     28.22
   MgCO3           1.522e-05   1.650e-05    -4.818    -4.782     0.035    -17.09
   MgOH+           3.804e-06   2.798e-06    -5.420    -5.553    -0.133     (0)  
Na            2.544e-01
   Na+             2.483e-01   1.800e-01    -0.605    -0.745    -0.140     -0.76
   NaSO4-          5.999e-03   4.287e-03    -2.222    -2.368    -0.146      3.00
   NaHCO3          6.320e-05   7.429e-05    -4.199    -4.129     0.070     31.73
O(0)          1.504e-38
   O2              7.518e-39   8.151e-39   -38.124   -38.089     0.035     30.40
S(6)          1.527e-02
   SO4-2           6.192e-03   1.463e-03    -2.208    -2.835    -0.627     32.26
   NaSO4-          5.999e-03   4.287e-03    -2.222    -2.368    -0.146      3.00
   MgSO4           2.537e-03   2.982e-03    -2.596    -2.526     0.070     -7.92
   CaSO4           3.657e-04   3.965e-04    -3.437    -3.402     0.035      7.50
   KSO4-           8.736e-05   7.256e-05    -4.059    -4.139    -0.081     13.50
   Mg(SO4)2-2      4.493e-05   1.437e-05    -4.347    -4.843    -0.495     28.22
   HSO4-           1.946e-09   1.422e-09    -8.711    -8.847    -0.136     40.78
   CaHSO4+         3.565e-11   2.606e-11   -10.448   -10.584    -0.136     (0)  

------------------------------Saturation indices-------------------------------

  Phase               SI** log IAP   log K(298 K,   1 atm)

  Anhydrite        -1.37     -5.65   -4.28  CaSO4
  Aragonite        -0.13     -8.47   -8.34  CaCO3
  Arcanite         -5.93     -7.81   -1.88  K2SO4
  Calcite           0.01     -8.47   -8.48  CaCO3
  CH4(g)          -73.77    -76.57   -2.80  CH4
  CO2(g)           -3.50     -4.97   -1.47  CO2	 Pressure   0.0 atm, phi 1.000
  Dolomite          0.85    -16.23  -17.08  CaMg(CO3)2
  Epsomite         -3.24     -4.97   -1.74  MgSO4:7H2O
  Gypsum           -1.08     -5.66   -4.58  CaSO4:2H2O
  H2(g)           -24.05    -27.15   -3.10  H2
  H2O(g)           -1.51     -0.00    1.50  H2O
  Halite           -3.02     -1.45    1.57  NaCl
  Hexahydrite      -3.40     -4.97   -1.57  MgSO4:6H2O
  Kieserite        -3.79     -4.95   -1.16  MgSO4:H2O
  Mirabilite       -3.13     -4.37   -1.24  Na2SO4:10H2O
  O2(g)           -35.20    -38.09   -2.89  O2
  Sylvite          -4.09     -3.19    0.90  KCl
  Thenardite       -4.02     -4.32   -0.30  Na2SO4

**For a gas, SI = log10(fugacity). Fugacity = pressure * phi / 1 atm.
  For ideal gases, phi = 1.

Initial solution 2.	Composition during halite precipitation

-----------------------------Solution composition------------------------------

	Elements           Molality       Moles

	Br                3.785e-02   3.785e-02
	C                 1.465e-04   1.465e-04  Equilibrium with CO2(g)
	Cl                6.004e+00   6.004e+00
	K                 4.578e-01   4.578e-01
	Mg                2.353e+00   2.353e+00
	Na                2.720e+00   2.720e+00
	S(6)              8.986e-01   8.986e-01

----------------------------Description of solution----------------------------

                                       pH  =   5.000    
                                       pe  =   4.000    
      Specific Conductance (µS/cm,  25°C)  = 127084
                          Density (g/cm³)  =   1.27153
                               Volume (L)  =   1.13238
                        Viscosity (mPa s)  =   4.86163
                        Activity of water  =   0.802
                 Ionic strength (mol/kgw)  =   9.159e+00
                       Mass of water (kg)  =   1.000e+00
                 Total alkalinity (eq/kg)  =   1.366e-04
                       Total CO2 (mol/kg)  =   1.465e-04
                         Temperature (°C)  =  25.00
                  Electrical balance (eq)  =   4.476e-02
 Percent error, 100*(Cat-|An|)/(Cat+|An|)  =   0.33
                               Iterations  =  13 (18 overall)
                                  Total H  = 1.110126e+02
                                  Total O  = 5.910106e+01

----------------------------Distribution of species----------------------------

                                               Log       Log       Log    mole V
   Species          Molality    Activity  Molality  Activity     Gamma   cm³/mol

   H+              1.429e-05   1.000e-05    -4.845    -5.000    -0.155      0.00
   OH-             1.795e-09   8.121e-10    -8.746    -9.090    -0.345      8.70
   H2O             5.551e+01   8.023e-01     1.744    -0.096     0.000     18.07
Br            3.785e-02
   Br-             3.785e-02   4.006e-02    -1.422    -1.397     0.025     26.43
C(-4)         0.000e+00
   CH4             0.000e+00   0.000e+00   -53.302   -52.387     0.916     35.46
C(4)          1.465e-04
   MgHCO3+         1.431e-04   7.005e-05    -3.844    -4.155    -0.310      6.02
   CO2             2.675e-06   1.076e-05    -5.573    -4.968     0.604     34.43
   HCO3-           6.709e-07   3.840e-07    -6.173    -6.416    -0.242     40.72
   KHCO3           3.994e-08   4.869e-08    -7.399    -7.313     0.086     41.03
   NaHCO3          3.179e-08   2.158e-06    -7.498    -5.666     1.832     31.73
   MgCO3           3.252e-09   2.679e-08    -8.488    -7.572     0.916    -17.09
   CO3-2           1.679e-11   1.801e-12   -10.775   -11.745    -0.970     12.41
   (CO2)2          2.579e-13   2.125e-12   -12.588   -11.673     0.916     68.87
Cl            6.004e+00
   Cl-             6.004e+00   3.974e+00     0.778     0.599    -0.179     20.50
   HCl             1.731e-09   1.369e-05    -8.762    -4.864     3.898     (0)  
H(0)          1.718e-22
   H2              8.592e-23   7.079e-22   -22.066   -21.150     0.916     28.61
K             4.578e-01
   K+              4.574e-01   2.839e-01    -0.340    -0.547    -0.207     13.49
   KSO4-           3.077e-04   9.682e-03    -3.512    -2.014     1.498   -451.20
   KHCO3           3.994e-08   4.869e-08    -7.399    -7.313     0.086     41.03
Mg            2.353e+00
   Mg+2            2.069e+00   1.559e+01     0.316     1.193     0.877    -16.42
   Mg(SO4)2-2      1.496e-01   6.756e-02    -0.825    -1.170    -0.345     57.74
   MgSO4           1.348e-01   9.151e+00    -0.870     0.961     1.832     -7.92
   MgHCO3+         1.431e-04   7.005e-05    -3.844    -4.155    -0.310      6.02
   MgOH+           7.313e-06   4.542e-06    -5.136    -5.343    -0.207     (0)  
   MgCO3           3.252e-09   2.679e-08    -8.488    -7.572     0.916    -17.09
Na            2.720e+00
   Na+             2.312e+00   6.453e+00     0.364     0.810     0.446      1.88
   NaSO4-          4.079e-01   2.355e-01    -0.389    -0.628    -0.239     39.33
   NaHCO3          3.179e-08   2.158e-06    -7.498    -5.666     1.832     31.73
O(0)          0.000e+00
   O2              0.000e+00   0.000e+00   -51.187   -50.271     0.916     30.40
S(6)          8.986e-01
   NaSO4-          4.079e-01   2.355e-01    -0.389    -0.628    -0.239     39.33
   Mg(SO4)2-2      1.496e-01   6.756e-02    -0.825    -1.170    -0.345     57.74
   MgSO4           1.348e-01   9.151e+00    -0.870     0.961     1.832     -7.92
   SO4-2           5.636e-02   2.242e-03    -1.249    -2.649    -1.400     93.79
   KSO4-           3.077e-04   9.682e-03    -3.512    -2.014     1.498   -451.20
   HSO4-           2.091e-07   2.179e-06    -6.680    -5.662     1.018     42.31

------------------------------Saturation indices-------------------------------

  Phase               SI** log IAP   log K(298 K,   1 atm)

  Arcanite         -1.86     -3.74   -1.88  K2SO4
  CH4(g)          -49.58    -52.39   -2.80  CH4
  CO2(g)           -3.50     -4.97   -1.47  CO2	 Pressure   0.0 atm, phi 1.000
  Epsomite         -0.39     -2.13   -1.74  MgSO4:7H2O
  H2(g)           -18.05    -21.15   -3.10  H2
  H2O(g)           -1.60     -0.10    1.50  H2O
  Halite           -0.16      1.41    1.57  NaCl
  Hexahydrite      -0.46     -2.03   -1.57  MgSO4:6H2O
  Kieserite        -0.39     -1.55   -1.16  MgSO4:H2O
  Mirabilite       -0.75     -1.99   -1.24  Na2SO4:10H2O
  O2(g)           -47.38    -50.27   -2.89  O2
  Sylvite          -0.85      0.05    0.90  KCl
  Thenardite       -0.73     -1.03   -0.30  Na2SO4

**For a gas, SI = log10(fugacity). Fugacity = pressure * phi / 1 atm.
  For ideal gases, phi = 1.

------------------
End of simulation.
------------------

------------------------------------
Reading input data for simulation 2.
------------------------------------

	SELECTED_OUTPUT 101
	     active false
	INVERSE_MODELING
	        solutions 1 2
	        uncertainties .025
	        range
	        balances 
	                Br
	                K
	                Mg
	        phases
	                H2O(g)  
	                Calcite 
	                CO2(g)  
	                Gypsum  
	                Halite  
		multiple_precision
	END
---------------------------------------------
Beginning of inverse modeling 1 calculations.
---------------------------------------------

Using Cl1MP multiprecision optimization routine.

Solution 1: Black Sea water

                         Input          Delta    Input+Delta
             pH      8.000e+00  +   0.000e+00  =   8.000e+00
     Alkalinity      8.602e-04  +   0.000e+00  =   8.602e-04
             Br      4.401e-04  +   0.000e+00  =   4.401e-04
          C(-4)      0.000e+00  +   0.000e+00  =   0.000e+00
           C(4)      8.359e-04  +   0.000e+00  =   8.359e-04
             Ca      5.841e-03  +   0.000e+00  =   5.841e-03
             Cl      2.930e-01  +   7.829e-04  =   2.938e-01
           H(0)      0.000e+00  +   0.000e+00  =   0.000e+00
              K      4.959e-03  +   1.034e-04  =   5.063e-03
             Mg      2.806e-02  +  -7.016e-04  =   2.736e-02
             Na      2.544e-01  +   0.000e+00  =   2.544e-01
           O(0)      0.000e+00  +   0.000e+00  =   0.000e+00
          S(-2)      0.000e+00  +   0.000e+00  =   0.000e+00
           S(6)      1.527e-02  +   7.969e-05  =   1.535e-02

Solution 2: Composition during halite precipitation

                         Input          Delta    Input+Delta
             pH      5.000e+00  +   0.000e+00  =   5.000e+00
     Alkalinity      1.366e-04  +   0.000e+00  =   1.366e-04
             Br      3.785e-02  +   9.440e-04  =   3.880e-02
          C(-4)      0.000e+00  +   0.000e+00  =   0.000e+00
           C(4)      1.465e-04  +   0.000e+00  =   1.465e-04
             Ca      0.000e+00  +   0.000e+00  =   0.000e+00
             Cl      6.004e+00  +   1.501e-01  =   6.154e+00
           H(0)      0.000e+00  +   0.000e+00  =   0.000e+00
              K      4.578e-01  +  -1.144e-02  =   4.463e-01
             Mg      2.353e+00  +   5.883e-02  =   2.412e+00
             Na      2.720e+00  +  -4.486e-02  =   2.675e+00
           O(0)      0.000e+00  +   0.000e+00  =   0.000e+00
          S(-2)      0.000e+00  +   0.000e+00  =   0.000e+00
           S(6)      8.986e-01  +  -2.247e-02  =   8.761e-01

Solution fractions:                   Minimum        Maximum
   Solution   1      8.815e+01      8.780e+01      8.815e+01
   Solution   2      1.000e+00      1.000e+00      1.000e+00

Phase mole transfers:                 Minimum        Maximum   Formula             (Approximate SI in solution 1, 2 at 298 K,   1 atm)
         H2O(g)     -4.837e+03     -4.817e+03     -4.817e+03   H2O                        ( -1.51, -1.60)
        Calcite     -3.785e-02     -3.880e-02     -3.675e-02   CaCO3                      (  0.01,      )
         CO2(g)     -3.570e-02     -3.849e-02     -3.277e-02   CO2                        ( -3.50, -3.50)
         Gypsum     -4.771e-01     -4.909e-01     -4.614e-01   CaSO4:2H2O                 ( -1.08,      )
         Halite     -1.975e+01     -2.033e+01     -1.901e+01   NaCl                       ( -3.02, -0.16)

Redox mole transfers:    

Sum of residuals (epsilons in documentation):         1.952e+02
Sum of delta/uncertainty limit:                       7.807e+00
Maximum fractional error in element concentration:    2.500e-02

Model contains minimum number of phases.
===============================================================================


Summary of inverse modeling:

	Number of models found: 1
	Number of minimal models found: 1
	Number of infeasible sets of phases saved: 6
	Number of calls to cl1: 22
------------------
End of simulation.
------------------

------------------------------------
Reading input data for simulation 3.
------------------------------------

