   Input file: ex2
  Output file: ex2.out
Database file: ../database/phreeqc.dat

------------------
Reading data base.
------------------

	SOLUTION_MASTER_SPECIES
	SOLUTION_SPECIES
	PHASES
	EXCHANGE_MASTER_SPECIES
	EXCHANGE_SPECIES
	SURFACE_MASTER_SPECIES
	SURFACE_SPECIES
	RATES
	END
------------------------------------
Reading input data for simulation 1.
------------------------------------

	DATABASE ../database/phreeqc.dat
	knobs
		logfile
	TITLE 
	Example 2.--Temperature dependence of solubility
	            of gypsum and anhydrite
	SOLUTION 1 Pure water
	        pH      7.0
	        temp    25.0                
	EQUILIBRIUM_PHASES 1
	        Gypsum          0.0     1.0
	        Anhydrite       0.0     1.0
	REACTION_TEMPERATURE 1
	        25.0 75.0 in 51 steps
	SELECTED_OUTPUT
	        file   ex2.pun
	        si     anhydrite  gypsum
	END
-----
TITLE
-----

Example 2.--Temperature dependence of solubility
            of gypsum and anhydrite

-------------------------------------------
Beginning of initial solution calculations.
-------------------------------------------

Initial solution 1.	Pure water

-----------------------------Solution composition------------------------------

	Elements           Molality       Moles

	Pure water     

----------------------------Description of solution----------------------------

                                       pH  =   7.000    
                                       pe  =   4.000    
       Specific Conductance (uS/cm, 25 oC) = 0
                          Density (g/cm3)  =   0.99704
                        Activity of water  =   1.000
                           Ionic strength  =   1.002e-07
                       Mass of water (kg)  =   1.000e+00
                 Total alkalinity (eq/kg)  =   2.208e-10
                    Total carbon (mol/kg)  =   0.000e+00
                       Total CO2 (mol/kg)  =   0.000e+00
                      Temperature (deg C)  =  25.00
                  Electrical balance (eq)  =  -2.208e-10
 Percent error, 100*(Cat-|An|)/(Cat+|An|)  =  -0.11
                               Iterations  =   0
                                  Total H  = 1.110124e+02
                                  Total O  = 5.550622e+01

----------------------------Distribution of species----------------------------

                                               Log       Log       Log    mole V
   Species          Molality    Activity  Molality  Activity     Gamma   cm3/mol

   OH-             1.003e-07   1.002e-07    -6.999    -6.999    -0.000     -4.11
   H+              1.001e-07   1.000e-07    -7.000    -7.000    -0.000      0.00
   H2O             5.551e+01   1.000e+00     1.744     0.000     0.000     18.07
H(0)          1.416e-25
   H2              7.079e-26   7.079e-26   -25.150   -25.150     0.000     28.61
O(0)          0.000e+00
   O2              0.000e+00   0.000e+00   -42.080   -42.080     0.000     30.40

------------------------------Saturation indices-------------------------------

	Phase               SI   log IAP   log K(298 K,   1 atm)

	H2(g)           -22.05    -25.15   -3.10  H2
	H2O(g)           -1.50      0.00    1.50  H2O
	O2(g)           -39.19    -42.08   -2.89  O2


-----------------------------------------
Beginning of batch-reaction calculations.
-----------------------------------------

Reaction step 1.

Using solution 1.	Pure water
Using pure phase assemblage 1.	
Using temperature 1.	

-------------------------------Phase assemblage--------------------------------

                                                      Moles in assemblage
Phase               SI  log IAP  log K(T, P)   Initial       Final       Delta

Anhydrite        -0.36    -4.58     -4.22    1.000e+00           0  -1.000e+00
Gypsum           -0.00    -4.58     -4.58    1.000e+00   1.985e+00   9.855e-01

-----------------------------Solution composition------------------------------

	Elements           Molality       Moles

	Ca                1.508e-02   1.455e-02
	S                 1.508e-02   1.455e-02

----------------------------Description of solution----------------------------

                                       pH  =   7.067      Charge balance
                                       pe  =  11.138      Adjusted to redox equilibrium
       Specific Conductance (uS/cm, 25 oC) = 2161
                          Density (g/cm3)  =   0.99908
                        Activity of water  =   1.000
                           Ionic strength  =   4.183e-02
                       Mass of water (kg)  =   9.645e-01
                 Total alkalinity (eq/kg)  =   2.289e-10
                    Total carbon (mol/kg)  =   0.000e+00
                       Total CO2 (mol/kg)  =   0.000e+00
                      Temperature (deg C)  =  25.00
                  Electrical balance (eq)  =  -2.200e-10
 Percent error, 100*(Cat-|An|)/(Cat+|An|)  =  -0.00
                               Iterations  =  43
                                  Total H  = 1.070706e+02
                                  Total O  = 5.359351e+01

----------------------------Distribution of species----------------------------

                                               Log       Log       Log    mole V
   Species          Molality    Activity  Molality  Activity     Gamma   cm3/mol

   OH-             1.419e-07   1.168e-07    -6.848    -6.933    -0.084     -3.85
   H+              9.962e-08   8.577e-08    -7.002    -7.067    -0.065      0.00
   H2O             5.551e+01   9.996e-01     1.744    -0.000     0.000     18.07
Ca            1.508e-02
   Ca+2            1.046e-02   5.176e-03    -1.981    -2.286    -0.305    -17.77
   CaSO4           4.627e-03   4.672e-03    -2.335    -2.331     0.004      7.50
   CaOH+           1.204e-08   1.001e-08    -7.919    -7.999    -0.080     (0)  
   CaHSO4+         3.168e-09   2.634e-09    -8.499    -8.579    -0.080     (0)  
H(0)          5.473e-40
   H2              2.737e-40   2.763e-40   -39.563   -39.559     0.004     28.61
O(0)          1.081e-13
   O2              5.403e-14   5.455e-14   -13.267   -13.263     0.004     30.40
S(-2)         0.000e+00
   HS-             0.000e+00   0.000e+00  -121.260  -121.345    -0.084     20.76
   H2S             0.000e+00   0.000e+00  -121.474  -121.470     0.004     37.16
   S-2             0.000e+00   0.000e+00  -126.884  -127.196    -0.312     (0)  
S(6)          1.508e-02
   SO4-2           1.046e-02   5.075e-03    -1.981    -2.295    -0.314     15.55
   CaSO4           4.627e-03   4.672e-03    -2.335    -2.331     0.004      7.50
   HSO4-           5.090e-08   4.232e-08    -7.293    -7.373    -0.080     35.33
   CaHSO4+         3.168e-09   2.634e-09    -8.499    -8.579    -0.080     (0)  

------------------------------Saturation indices-------------------------------

	Phase               SI   log IAP   log K(298 K,   1 atm)

	Anhydrite        -0.36     -4.58   -4.22  CaSO4
	Gypsum           -0.00     -4.58   -4.58  CaSO4:2H2O
	H2(g)           -36.46    -39.56   -3.10  H2
	H2O(g)           -1.50     -0.00    1.50  H2O
	H2S(g)         -120.42   -128.41   -7.99  H2S
	O2(g)           -10.37    -13.26   -2.89  O2
	Sulfur          -89.94    -85.06    4.88  S


Reaction step 2.

Using solution 1.	Pure water
Using pure phase assemblage 1.	
Using temperature 1.	

-------------------------------Phase assemblage--------------------------------

                                                      Moles in assemblage
Phase               SI  log IAP  log K(T, P)   Initial       Final       Delta

Anhydrite        -0.35    -4.58     -4.24    1.000e+00           0  -1.000e+00
Gypsum            0.00    -4.58     -4.58    1.000e+00   1.985e+00   9.854e-01

-----------------------------Solution composition------------------------------

	Elements           Molality       Moles

	Ca                1.513e-02   1.459e-02
	S                 1.513e-02   1.459e-02

----------------------------Description of solution----------------------------

                                       pH  =   7.053      Charge balance
                                       pe  =  -1.326      Adjusted to redox equilibrium
       Specific Conductance (uS/cm, 26 oC) = 2212
                          Density (g/cm3)  =   0.99882
                        Activity of water  =   1.000
                           Ionic strength  =   4.188e-02
                       Mass of water (kg)  =   9.645e-01
                 Total alkalinity (eq/kg)  =   2.289e-10
                    Total carbon (mol/kg)  =   0.000e+00
                       Total CO2 (mol/kg)  =   0.000e+00
                      Temperature (deg C)  =  26.00
                  Electrical balance (eq)  =  -2.208e-10
 Percent error, 100*(Cat-|An|)/(Cat+|An|)  =  -0.00
                               Iterations  =  19
                                  Total H  = 1.070708e+02
                                  Total O  = 5.359376e+01

----------------------------Distribution of species----------------------------

                                               Log       Log       Log    mole V
   Species          Molality    Activity  Molality  Activity     Gamma   cm3/mol

   OH-             1.485e-07   1.222e-07    -6.828    -6.913    -0.085     -3.81
   H+              1.029e-07   8.853e-08    -6.988    -7.053    -0.065      0.00
   H2O             5.551e+01   9.996e-01     1.744    -0.000     0.000     18.07
Ca            1.513e-02
   Ca+2            1.047e-02   5.174e-03    -1.980    -2.286    -0.306    -17.70
   CaSO4           4.658e-03   4.703e-03    -2.332    -2.328     0.004      7.54
   CaOH+           1.167e-08   9.696e-09    -7.933    -8.013    -0.080     (0)  
   CaHSO4+         3.341e-09   2.777e-09    -8.476    -8.556    -0.080     (0)  
H(0)          4.889e-15
   H2              2.445e-15   2.468e-15   -14.612   -14.608     0.004     28.60
O(0)          0.000e+00
   O2              0.000e+00   0.000e+00   -62.848   -62.843     0.004     30.48
S(-2)         4.311e-22
   HS-             2.674e-22   2.200e-22   -21.573   -21.657    -0.085     20.81
   H2S             1.638e-22   1.653e-22   -21.786   -21.782     0.004     37.17
   S-2             6.608e-28   3.214e-28   -27.180   -27.493    -0.313     (0)  
S(6)          1.513e-02
   SO4-2           1.047e-02   5.073e-03    -1.980    -2.295    -0.315     15.65
   CaSO4           4.658e-03   4.703e-03    -2.332    -2.328     0.004      7.54
   HSO4-           5.371e-08   4.463e-08    -7.270    -7.350    -0.080     35.39
   CaHSO4+         3.341e-09   2.777e-09    -8.476    -8.556    -0.080     (0)  

------------------------------Saturation indices-------------------------------

	Phase               SI   log IAP   log K(299 K,   1 atm)

	Anhydrite        -0.35     -4.58   -4.24  CaSO4
	Gypsum            0.00     -4.58   -4.58  CaSO4:2H2O
	H2(g)           -11.50    -14.61   -3.10  H2
	H2O(g)           -1.48     -0.00    1.48  H2O
	H2S(g)          -20.72    -28.71   -7.99  H2S
	O2(g)           -59.94    -62.84   -2.90  O2
	Sulfur          -15.19    -10.33    4.86  S


Reaction step 3.

Using solution 1.	Pure water
Using pure phase assemblage 1.	
Using temperature 1.	

-------------------------------Phase assemblage--------------------------------

                                                      Moles in assemblage
Phase               SI  log IAP  log K(T, P)   Initial       Final       Delta

Anhydrite        -0.33    -4.58     -4.25    1.000e+00           0  -1.000e+00
Gypsum            0.00    -4.58     -4.58    1.000e+00   1.985e+00   9.854e-01

-----------------------------Solution composition------------------------------

	Elements           Molality       Moles

	Ca                1.517e-02   1.463e-02
	S                 1.517e-02   1.463e-02

----------------------------Description of solution----------------------------

                                       pH  =   7.039      Charge balance
                                       pe  =  -1.313      Adjusted to redox equilibrium
       Specific Conductance (uS/cm, 27 oC) = 2262
                          Density (g/cm3)  =   0.99855
                        Activity of water  =   1.000
                           Ionic strength  =   4.191e-02
                       Mass of water (kg)  =   9.645e-01
                 Total alkalinity (eq/kg)  =   2.289e-10
                    Total carbon (mol/kg)  =   0.000e+00
                       Total CO2 (mol/kg)  =   0.000e+00
                      Temperature (deg C)  =  27.00
                  Electrical balance (eq)  =  -2.208e-10
 Percent error, 100*(Cat-|An|)/(Cat+|An|)  =  -0.00
                               Iterations  =  19
                                  Total H  = 1.070709e+02
                                  Total O  = 5.359398e+01

----------------------------Distribution of species----------------------------

                                               Log       Log       Log    mole V
   Species          Molality    Activity  Molality  Activity     Gamma   cm3/mol

   OH-             1.553e-07   1.277e-07    -6.809    -6.894    -0.085     -3.76
   H+              1.062e-07   9.136e-08    -6.974    -7.039    -0.065      0.00
   H2O             5.551e+01   9.996e-01     1.744    -0.000     0.000     18.08
Ca            1.517e-02
   Ca+2            1.048e-02   5.172e-03    -1.980    -2.286    -0.307    -17.64
   CaSO4           4.688e-03   4.733e-03    -2.329    -2.325     0.004      7.57
   CaOH+           1.130e-08   9.391e-09    -7.947    -8.027    -0.081     (0)  
   CaHSO4+         3.523e-09   2.926e-09    -8.453    -8.534    -0.081     (0)  
H(0)          4.846e-15
   H2              2.423e-15   2.446e-15   -14.616   -14.611     0.004     28.60
O(0)          0.000e+00
   O2              0.000e+00   0.000e+00   -62.520   -62.516     0.004     30.55
S(-2)         3.190e-22
   HS-             1.977e-22   1.626e-22   -21.704   -21.789    -0.085     20.85
   H2S             1.213e-22   1.225e-22   -21.916   -21.912     0.004     37.17
   S-2             5.072e-28   2.464e-28   -27.295   -27.608    -0.314     (0)  
S(6)          1.517e-02
   SO4-2           1.048e-02   5.070e-03    -1.980    -2.295    -0.315     15.75
   CaSO4           4.688e-03   4.733e-03    -2.329    -2.325     0.004      7.57
   HSO4-           5.665e-08   4.706e-08    -7.247    -7.327    -0.081     35.46
   CaHSO4+         3.523e-09   2.926e-09    -8.453    -8.534    -0.081     (0)  

------------------------------Saturation indices-------------------------------

	Phase               SI   log IAP   log K(300 K,   1 atm)

	Anhydrite        -0.33     -4.58   -4.25  CaSO4
	Gypsum            0.00     -4.58   -4.58  CaSO4:2H2O
	H2(g)           -11.51    -14.61   -3.11  H2
	H2O(g)           -1.45     -0.00    1.45  H2O
	H2S(g)          -20.84    -28.83   -7.99  H2S
	O2(g)           -59.61    -62.52   -2.91  O2
	Sulfur          -15.29    -10.46    4.84  S


Reaction step 4.

Using solution 1.	Pure water
Using pure phase assemblage 1.	
Using temperature 1.	

-------------------------------Phase assemblage--------------------------------

                                                      Moles in assemblage
Phase               SI  log IAP  log K(T, P)   Initial       Final       Delta

Anhydrite        -0.32    -4.58     -4.26    1.000e+00           0  -1.000e+00
Gypsum            0.00    -4.58     -4.58    1.000e+00   1.985e+00   9.853e-01

-----------------------------Solution composition------------------------------

	Elements           Molality       Moles

	Ca                1.520e-02   1.466e-02
	S                 1.520e-02   1.466e-02

----------------------------Description of solution----------------------------

                                       pH  =   7.026      Charge balance
                                       pe  =  -1.304      Adjusted to redox equilibrium
       Specific Conductance (uS/cm, 28 oC) = 2313
                          Density (g/cm3)  =   0.99828
                        Activity of water  =   1.000
                           Ionic strength  =   4.194e-02
                       Mass of water (kg)  =   9.645e-01
                 Total alkalinity (eq/kg)  =   2.289e-10
                    Total carbon (mol/kg)  =   0.000e+00
                       Total CO2 (mol/kg)  =   0.000e+00
                      Temperature (deg C)  =  28.00
                  Electrical balance (eq)  =  -2.208e-10
 Percent error, 100*(Cat-|An|)/(Cat+|An|)  =  -0.00
                               Iterations  =  19
                                  Total H  = 1.070711e+02
                                  Total O  = 5.359419e+01

----------------------------Distribution of species----------------------------

                                               Log       Log       Log    mole V
   Species          Molality    Activity  Molality  Activity     Gamma   cm3/mol

   OH-             1.623e-07   1.335e-07    -6.790    -6.875    -0.085     -3.72
   H+              1.096e-07   9.425e-08    -6.960    -7.026    -0.065      0.00
   H2O             5.551e+01   9.996e-01     1.744    -0.000     0.000     18.08
Ca            1.520e-02
   Ca+2            1.049e-02   5.168e-03    -1.979    -2.287    -0.307    -17.58
   CaSO4           4.716e-03   4.762e-03    -2.326    -2.322     0.004      7.61
   CaOH+           1.095e-08   9.097e-09    -7.960    -8.041    -0.081     (0)  
   CaHSO4+         3.713e-09   3.083e-09    -8.430    -8.511    -0.081     (0)  
H(0)          4.895e-15
   H2              2.448e-15   2.471e-15   -14.611   -14.607     0.004     28.60
O(0)          0.000e+00
   O2              0.000e+00   0.000e+00   -62.212   -62.208     0.004     30.63
S(-2)         2.553e-22
   HS-             1.581e-22   1.300e-22   -21.801   -21.886    -0.085     20.89
   H2S             9.720e-23   9.815e-23   -22.012   -22.008     0.004     37.18
   S-2             4.208e-28   2.041e-28   -27.376   -27.690    -0.314     (0)  
S(6)          1.520e-02
   SO4-2           1.049e-02   5.067e-03    -1.979    -2.295    -0.316     15.84
   CaSO4           4.716e-03   4.762e-03    -2.326    -2.322     0.004      7.61
   HSO4-           5.975e-08   4.961e-08    -7.224    -7.304    -0.081     35.52
   CaHSO4+         3.713e-09   3.083e-09    -8.430    -8.511    -0.081     (0)  

------------------------------Saturation indices-------------------------------

	Phase               SI   log IAP   log K(301 K,   1 atm)

	Anhydrite        -0.32     -4.58   -4.26  CaSO4
	Gypsum            0.00     -4.58   -4.58  CaSO4:2H2O
	H2(g)           -11.50    -14.61   -3.11  H2
	H2O(g)           -1.43     -0.00    1.43  H2O
	H2S(g)          -20.93    -28.91   -7.99  H2S
	O2(g)           -59.29    -62.21   -2.91  O2
	Sulfur          -15.38    -10.56    4.81  S


Reaction step 5.

Using solution 1.	Pure water
Using pure phase assemblage 1.	
Using temperature 1.	

-------------------------------Phase assemblage--------------------------------

                                                      Moles in assemblage
Phase               SI  log IAP  log K(T, P)   Initial       Final       Delta

Anhydrite        -0.31    -4.58     -4.27    1.000e+00           0  -1.000e+00
Gypsum            0.00    -4.58     -4.58    1.000e+00   1.985e+00   9.853e-01

-----------------------------Solution composition------------------------------

	Elements           Molality       Moles

	Ca                1.524e-02   1.469e-02
	S                 1.524e-02   1.469e-02

----------------------------Description of solution----------------------------

                                       pH  =   7.012      Charge balance
                                       pe  =  -1.290      Adjusted to redox equilibrium
       Specific Conductance (uS/cm, 29 oC) = 2364
                          Density (g/cm3)  =   0.99799
                        Activity of water  =   1.000
                           Ionic strength  =   4.197e-02
                       Mass of water (kg)  =   9.645e-01
                 Total alkalinity (eq/kg)  =   2.289e-10
                    Total carbon (mol/kg)  =   0.000e+00
                       Total CO2 (mol/kg)  =   0.000e+00
                      Temperature (deg C)  =  29.00
                  Electrical balance (eq)  =  -2.208e-10
 Percent error, 100*(Cat-|An|)/(Cat+|An|)  =  -0.00
                               Iterations  =  20
                                  Total H  = 1.070712e+02
                                  Total O  = 5.359438e+01

----------------------------Distribution of species----------------------------

                                               Log       Log       Log    mole V
   Species          Molality    Activity  Molality  Activity     Gamma   cm3/mol

   OH-             1.696e-07   1.394e-07    -6.771    -6.856    -0.085     -3.68
   H+              1.130e-07   9.722e-08    -6.947    -7.012    -0.065      0.00
   H2O             5.551e+01   9.996e-01     1.744    -0.000     0.000     18.09
Ca            1.524e-02
   Ca+2            1.049e-02   5.164e-03    -1.979    -2.287    -0.308    -17.53
   CaSO4           4.744e-03   4.790e-03    -2.324    -2.320     0.004      7.64
   CaOH+           1.062e-08   8.813e-09    -7.974    -8.055    -0.081     (0)  
   CaHSO4+         3.911e-09   3.247e-09    -8.408    -8.489    -0.081     (0)  
H(0)          4.851e-15
   H2              2.425e-15   2.449e-15   -14.615   -14.611     0.004     28.60
O(0)          0.000e+00
   O2              0.000e+00   0.000e+00   -61.889   -61.885     0.004     30.70
S(-2)         1.893e-22
   HS-             1.171e-22   9.627e-23   -21.931   -22.017    -0.085     20.93
   H2S             7.220e-23   7.290e-23   -22.141   -22.137     0.004     37.18
   S-2             3.235e-28   1.567e-28   -27.490   -27.805    -0.315     (0)  
S(6)          1.524e-02
   SO4-2           1.049e-02   5.063e-03    -1.979    -2.296    -0.316     15.93
   CaSO4           4.744e-03   4.790e-03    -2.324    -2.320     0.004      7.64
   HSO4-           6.299e-08   5.229e-08    -7.201    -7.282    -0.081     35.58
   CaHSO4+         3.911e-09   3.247e-09    -8.408    -8.489    -0.081     (0)  

------------------------------Saturation indices-------------------------------

	Phase               SI   log IAP   log K(302 K,   1 atm)

	Anhydrite        -0.31     -4.58   -4.27  CaSO4
	Gypsum            0.00     -4.58   -4.58  CaSO4:2H2O
	H2(g)           -11.50    -14.61   -3.11  H2
	H2O(g)           -1.40     -0.00    1.40  H2O
	H2S(g)          -21.05    -29.03   -7.98  H2S
	O2(g)           -58.96    -61.88   -2.92  O2
	Sulfur          -15.48    -10.69    4.79  S


Reaction step 6.

Using solution 1.	Pure water
Using pure phase assemblage 1.	
Using temperature 1.	

-------------------------------Phase assemblage--------------------------------

                                                      Moles in assemblage
Phase               SI  log IAP  log K(T, P)   Initial       Final       Delta

Anhydrite        -0.30    -4.58     -4.29    1.000e+00           0  -1.000e+00
Gypsum            0.00    -4.58     -4.58    1.000e+00   1.985e+00   9.853e-01

-----------------------------Solution composition------------------------------

	Elements           Molality       Moles

	Ca                1.527e-02   1.472e-02
	S                 1.527e-02   1.472e-02

----------------------------Description of solution----------------------------

                                       pH  =   6.999      Charge balance
                                       pe  =  -1.277      Adjusted to redox equilibrium
       Specific Conductance (uS/cm, 30 oC) = 2415
                          Density (g/cm3)  =   0.99769
                        Activity of water  =   1.000
                           Ionic strength  =   4.198e-02
                       Mass of water (kg)  =   9.645e-01
                 Total alkalinity (eq/kg)  =   2.289e-10
                    Total carbon (mol/kg)  =   0.000e+00
                       Total CO2 (mol/kg)  =   0.000e+00
                      Temperature (deg C)  =  30.00
                  Electrical balance (eq)  =  -2.208e-10
 Percent error, 100*(Cat-|An|)/(Cat+|An|)  =  -0.00
                               Iterations  =  19
                                  Total H  = 1.070713e+02
                                  Total O  = 5.359456e+01

----------------------------Distribution of species----------------------------

                                               Log       Log       Log    mole V
   Species          Molality    Activity  Molality  Activity     Gamma   cm3/mol

   OH-             1.770e-07   1.455e-07    -6.752    -6.837    -0.085     -3.65
   H+              1.166e-07   1.002e-07    -6.933    -6.999    -0.066      0.00
   H2O             5.551e+01   9.996e-01     1.744    -0.000     0.000     18.09
Ca            1.527e-02
   Ca+2            1.050e-02   5.160e-03    -1.979    -2.287    -0.308    -17.47
   CaSO4           4.770e-03   4.816e-03    -2.322    -2.317     0.004      7.68
   CaOH+           1.029e-08   8.539e-09    -7.988    -8.069    -0.081     (0)  
   CaHSO4+         4.119e-09   3.418e-09    -8.385    -8.466    -0.081     (0)  
H(0)          4.803e-15
   H2              2.401e-15   2.425e-15   -14.620   -14.615     0.004     28.60
O(0)          0.000e+00
   O2              0.000e+00   0.000e+00   -61.567   -61.563     0.004     30.77
S(-2)         1.402e-22
   HS-             8.666e-23   7.121e-23   -22.062   -22.147    -0.085     20.97
   H2S             5.358e-23   5.410e-23   -22.271   -22.267     0.004     37.18
   S-2             2.484e-28   1.202e-28   -27.605   -27.920    -0.315     (0)  
S(6)          1.527e-02
   SO4-2           1.050e-02   5.059e-03    -1.979    -2.296    -0.317     16.01
   CaSO4           4.770e-03   4.816e-03    -2.322    -2.317     0.004      7.68
   HSO4-           6.640e-08   5.510e-08    -7.178    -7.259    -0.081     35.63
   CaHSO4+         4.119e-09   3.418e-09    -8.385    -8.466    -0.081     (0)  

------------------------------Saturation indices-------------------------------

	Phase               SI   log IAP   log K(303 K,   1 atm)

	Anhydrite        -0.30     -4.58   -4.29  CaSO4
	Gypsum            0.00     -4.58   -4.58  CaSO4:2H2O
	H2(g)           -11.50    -14.62   -3.11  H2
	H2O(g)           -1.38     -0.00    1.38  H2O
	H2S(g)          -21.17    -29.15   -7.98  H2S
	O2(g)           -58.64    -61.56   -2.93  O2
	Sulfur          -15.59    -10.82    4.77  S


Reaction step 7.

Using solution 1.	Pure water
Using pure phase assemblage 1.	
Using temperature 1.	

-------------------------------Phase assemblage--------------------------------

                                                      Moles in assemblage
Phase               SI  log IAP  log K(T, P)   Initial       Final       Delta

Anhydrite        -0.28    -4.58     -4.30    1.000e+00           0  -1.000e+00
Gypsum           -0.00    -4.58     -4.58    1.000e+00   1.985e+00   9.853e-01

-----------------------------Solution composition------------------------------

	Elements           Molality       Moles

	Ca                1.529e-02   1.475e-02
	S                 1.529e-02   1.475e-02

----------------------------Description of solution----------------------------

                                       pH  =   6.986      Charge balance
                                       pe  =  -1.271      Adjusted to redox equilibrium
       Specific Conductance (uS/cm, 31 oC) = 2466
                          Density (g/cm3)  =   0.99739
                        Activity of water  =   1.000
                           Ionic strength  =   4.199e-02
                       Mass of water (kg)  =   9.645e-01
                 Total alkalinity (eq/kg)  =   2.289e-10
                    Total carbon (mol/kg)  =   0.000e+00
                       Total CO2 (mol/kg)  =   0.000e+00
                      Temperature (deg C)  =  31.00
                  Electrical balance (eq)  =  -2.208e-10
 Percent error, 100*(Cat-|An|)/(Cat+|An|)  =  -0.00
                               Iterations  =  19
                                  Total H  = 1.070714e+02
                                  Total O  = 5.359471e+01

----------------------------Distribution of species----------------------------

                                               Log       Log       Log    mole V
   Species          Molality    Activity  Molality  Activity     Gamma   cm3/mol

   OH-             1.848e-07   1.518e-07    -6.733    -6.819    -0.085     -3.62
   H+              1.202e-07   1.033e-07    -6.920    -6.986    -0.066      0.00
   H2O             5.551e+01   9.996e-01     1.744    -0.000     0.000     18.10
Ca            1.529e-02
   Ca+2            1.050e-02   5.154e-03    -1.979    -2.288    -0.309    -17.42
   CaSO4           4.794e-03   4.841e-03    -2.319    -2.315     0.004      7.71
   CaOH+           9.975e-09   8.275e-09    -8.001    -8.082    -0.081     (0)  
   CaHSO4+         4.337e-09   3.597e-09    -8.363    -8.444    -0.081     (0)  
H(0)          4.910e-15
   H2              2.455e-15   2.479e-15   -14.610   -14.606     0.004     28.60
O(0)          0.000e+00
   O2              0.000e+00   0.000e+00   -61.275   -61.271     0.004     30.84
S(-2)         1.182e-22
   HS-             7.296e-23   5.993e-23   -22.137   -22.222    -0.085     21.00
   H2S             4.525e-23   4.569e-23   -22.344   -22.340     0.004     37.19
   S-2             2.169e-28   1.048e-28   -27.664   -27.980    -0.316     (0)  
S(6)          1.529e-02
   SO4-2           1.050e-02   5.053e-03    -1.979    -2.296    -0.318     16.08
   CaSO4           4.794e-03   4.841e-03    -2.319    -2.315     0.004      7.71
   HSO4-           6.998e-08   5.805e-08    -7.155    -7.236    -0.081     35.69
   CaHSO4+         4.337e-09   3.597e-09    -8.363    -8.444    -0.081     (0)  

------------------------------Saturation indices-------------------------------

	Phase               SI   log IAP   log K(304 K,   1 atm)

	Anhydrite        -0.28     -4.58   -4.30  CaSO4
	Gypsum           -0.00     -4.58   -4.58  CaSO4:2H2O
	H2(g)           -11.49    -14.61   -3.11  H2
	H2O(g)           -1.35     -0.00    1.35  H2O
	H2S(g)          -21.23    -29.21   -7.98  H2S
	O2(g)           -58.34    -61.27   -2.93  O2
	Sulfur          -15.65    -10.91    4.74  S


Reaction step 8.

Using solution 1.	Pure water
Using pure phase assemblage 1.	
Using temperature 1.	

-------------------------------Phase assemblage--------------------------------

                                                      Moles in assemblage
Phase               SI  log IAP  log K(T, P)   Initial       Final       Delta

Anhydrite        -0.27    -4.59     -4.31    1.000e+00           0  -1.000e+00
Gypsum            0.00    -4.59     -4.59    1.000e+00   1.985e+00   9.852e-01

-----------------------------Solution composition------------------------------

	Elements           Molality       Moles

	Ca                1.532e-02   1.477e-02
	S                 1.532e-02   1.477e-02

----------------------------Description of solution----------------------------

                                       pH  =   6.973      Charge balance
                                       pe  =  -1.255      Adjusted to redox equilibrium
       Specific Conductance (uS/cm, 32 oC) = 2517
                          Density (g/cm3)  =   0.99707
                        Activity of water  =   1.000
                           Ionic strength  =   4.200e-02
                       Mass of water (kg)  =   9.645e-01
                 Total alkalinity (eq/kg)  =   2.289e-10
                    Total carbon (mol/kg)  =   0.000e+00
                       Total CO2 (mol/kg)  =   0.000e+00
                      Temperature (deg C)  =  32.00
                  Electrical balance (eq)  =  -2.208e-10
 Percent error, 100*(Cat-|An|)/(Cat+|An|)  =  -0.00
                               Iterations  =  17
                                  Total H  = 1.070715e+02
                                  Total O  = 5.359485e+01

----------------------------Distribution of species----------------------------

                                               Log       Log       Log    mole V
   Species          Molality    Activity  Molality  Activity     Gamma   cm3/mol

   OH-             1.928e-07   1.583e-07    -6.715    -6.801    -0.086     -3.59
   H+              1.239e-07   1.065e-07    -6.907    -6.973    -0.066      0.00
   H2O             5.551e+01   9.996e-01     1.744    -0.000     0.000     18.11
Ca            1.532e-02
   Ca+2            1.050e-02   5.148e-03    -1.979    -2.288    -0.309    -17.37
   CaSO4           4.817e-03   4.864e-03    -2.317    -2.313     0.004      7.74
   CaOH+           9.671e-09   8.020e-09    -8.015    -8.096    -0.081     (0)  
   CaHSO4+         4.563e-09   3.784e-09    -8.341    -8.422    -0.081     (0)  
H(0)          4.810e-15
   H2              2.405e-15   2.428e-15   -14.619   -14.615     0.004     28.60
O(0)          0.000e+00
   O2              0.000e+00   0.000e+00   -60.948   -60.944     0.004     30.91
S(-2)         8.415e-23
   HS-             5.188e-23   4.260e-23   -22.285   -22.371    -0.086     21.03
   H2S             3.228e-23   3.259e-23   -22.491   -22.487     0.004     37.19
   S-2             1.599e-28   7.719e-29   -27.796   -28.112    -0.316     (0)  
S(6)          1.532e-02
   SO4-2           1.050e-02   5.047e-03    -1.979    -2.297    -0.318     16.15
   CaSO4           4.817e-03   4.864e-03    -2.317    -2.313     0.004      7.74
   HSO4-           7.373e-08   6.114e-08    -7.132    -7.214    -0.081     35.74
   CaHSO4+         4.563e-09   3.784e-09    -8.341    -8.422    -0.081     (0)  

------------------------------Saturation indices-------------------------------

	Phase               SI   log IAP   log K(305 K,   1 atm)

	Anhydrite        -0.27     -4.59   -4.31  CaSO4
	Gypsum            0.00     -4.59   -4.59  CaSO4:2H2O
	H2(g)           -11.50    -14.61   -3.12  H2
	H2O(g)           -1.33     -0.00    1.33  H2O
	H2S(g)          -21.37    -29.34   -7.98  H2S
	O2(g)           -58.00    -60.94   -2.94  O2
	Sulfur          -15.77    -11.05    4.72  S


Reaction step 9.

Using solution 1.	Pure water
Using pure phase assemblage 1.	
Using temperature 1.	

-------------------------------Phase assemblage--------------------------------

                                                      Moles in assemblage
Phase               SI  log IAP  log K(T, P)   Initial       Final       Delta

Anhydrite        -0.26    -4.59     -4.33    1.000e+00           0  -1.000e+00
Gypsum           -0.00    -4.59     -4.59    1.000e+00   1.985e+00   9.852e-01

-----------------------------Solution composition------------------------------

	Elements           Molality       Moles

	Ca                1.534e-02   1.479e-02
	S                 1.534e-02   1.479e-02

----------------------------Description of solution----------------------------

                                       pH  =   6.960      Charge balance
                                       pe  =  -1.246      Adjusted to redox equilibrium
       Specific Conductance (uS/cm, 33 oC) = 2568
                          Density (g/cm3)  =   0.99675
                        Activity of water  =   1.000
                           Ionic strength  =   4.199e-02
                       Mass of water (kg)  =   9.645e-01
                 Total alkalinity (eq/kg)  =   2.289e-10
                    Total carbon (mol/kg)  =   0.000e+00
                       Total CO2 (mol/kg)  =   0.000e+00
                      Temperature (deg C)  =  33.00
                  Electrical balance (eq)  =  -2.208e-10
 Percent error, 100*(Cat-|An|)/(Cat+|An|)  =  -0.00
                               Iterations  =  20
                                  Total H  = 1.070716e+02
                                  Total O  = 5.359497e+01

----------------------------Distribution of species----------------------------

                                               Log       Log       Log    mole V
   Species          Molality    Activity  Molality  Activity     Gamma   cm3/mol

   OH-             2.010e-07   1.650e-07    -6.697    -6.783    -0.086     -3.56
   H+              1.277e-07   1.097e-07    -6.894    -6.960    -0.066      0.00
   H2O             5.551e+01   9.996e-01     1.744    -0.000     0.000     18.11
Ca            1.534e-02
   Ca+2            1.050e-02   5.142e-03    -1.979    -2.289    -0.310    -17.33
   CaSO4           4.839e-03   4.886e-03    -2.315    -2.311     0.004      7.77
   CaOH+           9.379e-09   7.775e-09    -8.028    -8.109    -0.081     (0)  
   CaHSO4+         4.800e-09   3.979e-09    -8.319    -8.400    -0.081     (0)  
H(0)          4.843e-15
   H2              2.422e-15   2.445e-15   -14.616   -14.612     0.004     28.60
O(0)          0.000e+00
   O2              0.000e+00   0.000e+00   -60.647   -60.643     0.004     30.97
S(-2)         6.700e-23
   HS-             4.125e-23   3.386e-23   -22.385   -22.470    -0.086     21.06
   H2S             2.576e-23   2.601e-23   -22.589   -22.585     0.004     37.19
   S-2             1.319e-28   6.356e-29   -27.880   -28.197    -0.317     (0)  
S(6)          1.534e-02
   SO4-2           1.050e-02   5.041e-03    -1.979    -2.298    -0.319     16.21
   CaSO4           4.839e-03   4.886e-03    -2.315    -2.311     0.004      7.77
   HSO4-           7.765e-08   6.437e-08    -7.110    -7.191    -0.081     35.79
   CaHSO4+         4.800e-09   3.979e-09    -8.319    -8.400    -0.081     (0)  

------------------------------Saturation indices-------------------------------

	Phase               SI   log IAP   log K(306 K,   1 atm)

	Anhydrite        -0.26     -4.59   -4.33  CaSO4
	Gypsum           -0.00     -4.59   -4.59  CaSO4:2H2O
	H2(g)           -11.49    -14.61   -3.12  H2
	H2O(g)           -1.30     -0.00    1.30  H2O
	H2S(g)          -21.46    -29.43   -7.97  H2S
	O2(g)           -57.70    -60.64   -2.95  O2
	Sulfur          -15.86    -11.16    4.70  S


Reaction step 10.

Using solution 1.	Pure water
Using pure phase assemblage 1.	
Using temperature 1.	

-------------------------------Phase assemblage--------------------------------

                                                      Moles in assemblage
Phase               SI  log IAP  log K(T, P)   Initial       Final       Delta

Anhydrite        -0.25    -4.59     -4.34    1.000e+00           0  -1.000e+00
Gypsum           -0.00    -4.59     -4.59    1.000e+00   1.985e+00   9.852e-01

-----------------------------Solution composition------------------------------

	Elements           Molality       Moles

	Ca                1.536e-02   1.481e-02
	S                 1.536e-02   1.481e-02

----------------------------Description of solution----------------------------

                                       pH  =   6.947      Charge balance
                                       pe  =  -1.235      Adjusted to redox equilibrium
       Specific Conductance (uS/cm, 34 oC) = 2619
                          Density (g/cm3)  =   0.99642
                        Activity of water  =   1.000
                           Ionic strength  =   4.198e-02
                       Mass of water (kg)  =   9.645e-01
                 Total alkalinity (eq/kg)  =   2.289e-10
                    Total carbon (mol/kg)  =   0.000e+00
                       Total CO2 (mol/kg)  =   0.000e+00
                      Temperature (deg C)  =  34.00
                  Electrical balance (eq)  =  -2.208e-10
 Percent error, 100*(Cat-|An|)/(Cat+|An|)  =  -0.00
                               Iterations  =  17
                                  Total H  = 1.070717e+02
                                  Total O  = 5.359508e+01

----------------------------Distribution of species----------------------------

                                               Log       Log       Log    mole V
   Species          Molality    Activity  Molality  Activity     Gamma   cm3/mol

   OH-             2.095e-07   1.719e-07    -6.679    -6.765    -0.086     -3.53
   H+              1.315e-07   1.130e-07    -6.881    -6.947    -0.066      0.00
   H2O             5.551e+01   9.996e-01     1.744    -0.000     0.000     18.12
Ca            1.536e-02
   Ca+2            1.050e-02   5.134e-03    -1.979    -2.290    -0.311    -17.28
   CaSO4           4.860e-03   4.907e-03    -2.313    -2.309     0.004      7.80
   CaOH+           9.096e-09   7.538e-09    -8.041    -8.123    -0.082     (0)  
   CaHSO4+         5.047e-09   4.183e-09    -8.297    -8.379    -0.082     (0)  
H(0)          4.838e-15
   H2              2.419e-15   2.443e-15   -14.616   -14.612     0.004     28.60
O(0)          0.000e+00
   O2              0.000e+00   0.000e+00   -60.341   -60.337     0.004     31.04
S(-2)         5.173e-23
   HS-             3.180e-23   2.609e-23   -22.498   -22.583    -0.086     21.09
   H2S             1.993e-23   2.013e-23   -22.700   -22.696     0.004     37.20
   S-2             1.054e-28   5.074e-29   -27.977   -28.295    -0.317     (0)  
S(6)          1.536e-02
   SO4-2           1.050e-02   5.034e-03    -1.979    -2.298    -0.319     16.27
   CaSO4           4.860e-03   4.907e-03    -2.313    -2.309     0.004      7.80
   HSO4-           8.177e-08   6.776e-08    -7.087    -7.169    -0.082     35.84
   CaHSO4+         5.047e-09   4.183e-09    -8.297    -8.379    -0.082     (0)  

------------------------------Saturation indices-------------------------------

	Phase               SI   log IAP   log K(307 K,   1 atm)

	Anhydrite        -0.25     -4.59   -4.34  CaSO4
	Gypsum           -0.00     -4.59   -4.59  CaSO4:2H2O
	H2(g)           -11.49    -14.61   -3.12  H2
	H2O(g)           -1.28     -0.00    1.28  H2O
	H2S(g)          -21.56    -29.53   -7.97  H2S
	O2(g)           -57.39    -60.34   -2.95  O2
	Sulfur          -15.95    -11.27    4.68  S


Reaction step 11.

Using solution 1.	Pure water
Using pure phase assemblage 1.	
Using temperature 1.	

-------------------------------Phase assemblage--------------------------------

                                                      Moles in assemblage
Phase               SI  log IAP  log K(T, P)   Initial       Final       Delta

Anhydrite        -0.24    -4.59     -4.35    1.000e+00           0  -1.000e+00
Gypsum            0.00    -4.59     -4.59    1.000e+00   1.985e+00   9.852e-01

-----------------------------Solution composition------------------------------

	Elements           Molality       Moles

	Ca                1.537e-02   1.482e-02
	S                 1.537e-02   1.482e-02

----------------------------Description of solution----------------------------

                                       pH  =   6.934      Charge balance
                                       pe  =  -1.224      Adjusted to redox equilibrium
       Specific Conductance (uS/cm, 35 oC) = 2670
                          Density (g/cm3)  =   0.99608
                        Activity of water  =   1.000
                           Ionic strength  =   4.197e-02
                       Mass of water (kg)  =   9.645e-01
                 Total alkalinity (eq/kg)  =   2.289e-10
                    Total carbon (mol/kg)  =   0.000e+00
                       Total CO2 (mol/kg)  =   0.000e+00
                      Temperature (deg C)  =  35.00
                  Electrical balance (eq)  =  -2.208e-10
 Percent error, 100*(Cat-|An|)/(Cat+|An|)  =  -0.00
                               Iterations  =  17
                                  Total H  = 1.070717e+02
                                  Total O  = 5.359517e+01

----------------------------Distribution of species----------------------------

                                               Log       Log       Log    mole V
   Species          Molality    Activity  Molality  Activity     Gamma   cm3/mol

   OH-             2.182e-07   1.790e-07    -6.661    -6.747    -0.086     -3.51
   H+              1.355e-07   1.163e-07    -6.868    -6.934    -0.066      0.00
   H2O             5.551e+01   9.996e-01     1.744    -0.000     0.000     18.12
Ca            1.537e-02
   Ca+2            1.049e-02   5.126e-03    -1.979    -2.290    -0.311    -17.24
   CaSO4           4.879e-03   4.927e-03    -2.312    -2.307     0.004      7.83
   CaOH+           8.824e-09   7.310e-09    -8.054    -8.136    -0.082     (0)  
   CaHSO4+         5.305e-09   4.395e-09    -8.275    -8.357    -0.082     (0)  
H(0)          4.834e-15
   H2              2.417e-15   2.440e-15   -14.617   -14.613     0.004     28.60
O(0)          0.000e+00
   O2              0.000e+00   0.000e+00   -60.037   -60.033     0.004     31.10
S(-2)         4.004e-23
   HS-             2.457e-23   2.016e-23   -22.610   -22.696    -0.086     21.12
   H2S             1.546e-23   1.561e-23   -22.811   -22.806     0.004     37.20
   S-2             8.443e-29   4.060e-29   -28.074   -28.391    -0.318     (0)  
S(6)          1.537e-02
   SO4-2           1.049e-02   5.026e-03    -1.979    -2.299    -0.320     16.32
   CaSO4           4.879e-03   4.927e-03    -2.312    -2.307     0.004      7.83
   HSO4-           8.607e-08   7.131e-08    -7.065    -7.147    -0.082     35.88
   CaHSO4+         5.305e-09   4.395e-09    -8.275    -8.357    -0.082     (0)  

------------------------------Saturation indices-------------------------------

	Phase               SI   log IAP   log K(308 K,   1 atm)

	Anhydrite        -0.24     -4.59   -4.35  CaSO4
	Gypsum            0.00     -4.59   -4.59  CaSO4:2H2O
	H2(g)           -11.49    -14.61   -3.12  H2
	H2O(g)           -1.26     -0.00    1.26  H2O
	H2S(g)          -21.66    -29.63   -7.97  H2S
	O2(g)           -57.08    -60.03   -2.96  O2
	Sulfur          -16.04    -11.39    4.66  S


Reaction step 12.

Using solution 1.	Pure water
Using pure phase assemblage 1.	
Using temperature 1.	

-------------------------------Phase assemblage--------------------------------

                                                      Moles in assemblage
Phase               SI  log IAP  log K(T, P)   Initial       Final       Delta

Anhydrite        -0.23    -4.59     -4.36    1.000e+00           0  -1.000e+00
Gypsum            0.00    -4.59     -4.59    1.000e+00   1.985e+00   9.852e-01

-----------------------------Solution composition------------------------------

	Elements           Molality       Moles

	Ca                1.538e-02   1.484e-02
	S                 1.538e-02   1.484e-02

----------------------------Description of solution----------------------------

                                       pH  =   6.922      Charge balance
                                       pe  =  -1.212      Adjusted to redox equilibrium
       Specific Conductance (uS/cm, 36 oC) = 2720
                          Density (g/cm3)  =   0.99573
                        Activity of water  =   1.000
                           Ionic strength  =   4.194e-02
                       Mass of water (kg)  =   9.645e-01
                 Total alkalinity (eq/kg)  =   2.289e-10
                    Total carbon (mol/kg)  =   0.000e+00
                       Total CO2 (mol/kg)  =   0.000e+00
                      Temperature (deg C)  =  36.00
                  Electrical balance (eq)  =  -2.208e-10
 Percent error, 100*(Cat-|An|)/(Cat+|An|)  =  -0.00
                               Iterations  =  17
                                  Total H  = 1.070718e+02
                                  Total O  = 5.359524e+01

----------------------------Distribution of species----------------------------

                                               Log       Log       Log    mole V
   Species          Molality    Activity  Molality  Activity     Gamma   cm3/mol

   OH-             2.273e-07   1.864e-07    -6.643    -6.730    -0.086     -3.49
   H+              1.395e-07   1.197e-07    -6.856    -6.922    -0.066      0.00
   H2O             5.551e+01   9.996e-01     1.744    -0.000     0.000     18.13
Ca            1.538e-02
   Ca+2            1.049e-02   5.118e-03    -1.979    -2.291    -0.312    -17.20
   CaSO4           4.897e-03   4.945e-03    -2.310    -2.306     0.004      7.86
   CaOH+           8.561e-09   7.090e-09    -8.067    -8.149    -0.082     (0)  
   CaHSO4+         5.574e-09   4.616e-09    -8.254    -8.336    -0.082     (0)  
H(0)          4.793e-15
   H2              2.396e-15   2.420e-15   -14.620   -14.616     0.004     28.60
O(0)          0.000e+00
   O2              0.000e+00   0.000e+00   -59.728   -59.724     0.004     31.16
S(-2)         3.008e-23
   HS-             1.843e-23   1.512e-23   -22.734   -22.821    -0.086     21.14
   H2S             1.165e-23   1.176e-23   -22.934   -22.930     0.004     37.20
   S-2             6.564e-29   3.153e-29   -28.183   -28.501    -0.318     (0)  
S(6)          1.538e-02
   SO4-2           1.049e-02   5.018e-03    -1.979    -2.300    -0.320     16.37
   CaSO4           4.897e-03   4.945e-03    -2.310    -2.306     0.004      7.86
   HSO4-           9.058e-08   7.502e-08    -7.043    -7.125    -0.082     35.93
   CaHSO4+         5.574e-09   4.616e-09    -8.254    -8.336    -0.082     (0)  

------------------------------Saturation indices-------------------------------

	Phase               SI   log IAP   log K(309 K,   1 atm)

	Anhydrite        -0.23     -4.59   -4.36  CaSO4
	Gypsum            0.00     -4.59   -4.59  CaSO4:2H2O
	H2(g)           -11.49    -14.62   -3.12  H2
	H2O(g)           -1.23     -0.00    1.23  H2O
	H2S(g)          -21.77    -29.74   -7.97  H2S
	O2(g)           -56.76    -59.72   -2.96  O2
	Sulfur          -16.14    -11.51    4.63  S


Reaction step 13.

Using solution 1.	Pure water
Using pure phase assemblage 1.	
Using temperature 1.	

-------------------------------Phase assemblage--------------------------------

                                                      Moles in assemblage
Phase               SI  log IAP  log K(T, P)   Initial       Final       Delta

Anhydrite        -0.21    -4.59     -4.38    1.000e+00           0  -1.000e+00
Gypsum            0.00    -4.59     -4.59    1.000e+00   1.985e+00   9.852e-01

-----------------------------Solution composition------------------------------

	Elements           Molality       Moles

	Ca                1.539e-02   1.485e-02
	S                 1.539e-02   1.485e-02

----------------------------Description of solution----------------------------

                                       pH  =   6.909      Charge balance
                                       pe  =  -1.203      Adjusted to redox equilibrium
       Specific Conductance (uS/cm, 37 oC) = 2771
                          Density (g/cm3)  =   0.99538
                        Activity of water  =   1.000
                           Ionic strength  =   4.191e-02
                       Mass of water (kg)  =   9.645e-01
                 Total alkalinity (eq/kg)  =   2.289e-10
                    Total carbon (mol/kg)  =   0.000e+00
                       Total CO2 (mol/kg)  =   0.000e+00
                      Temperature (deg C)  =  37.00
                  Electrical balance (eq)  =  -2.096e-10
 Percent error, 100*(Cat-|An|)/(Cat+|An|)  =  -0.00
                               Iterations  =  16
                                  Total H  = 1.070718e+02
                                  Total O  = 5.359529e+01

----------------------------Distribution of species----------------------------

                                               Log       Log       Log    mole V
   Species          Molality    Activity  Molality  Activity     Gamma   cm3/mol

   OH-             2.366e-07   1.940e-07    -6.626    -6.712    -0.086     -3.47
   H+              1.435e-07   1.232e-07    -6.843    -6.909    -0.066      0.00
   H2O             5.551e+01   9.996e-01     1.744    -0.000     0.000     18.14
Ca            1.539e-02
   Ca+2            1.048e-02   5.109e-03    -1.980    -2.292    -0.312    -17.17
   CaSO4           4.914e-03   4.961e-03    -2.309    -2.304     0.004      7.88
   CaOH+           8.308e-09   6.879e-09    -8.080    -8.163    -0.082     (0)  
   CaHSO4+         5.853e-09   4.846e-09    -8.233    -8.315    -0.082     (0)  
H(0)          4.842e-15
   H2              2.421e-15   2.445e-15   -14.616   -14.612     0.004     28.60
O(0)          0.000e+00
   O2              0.000e+00   0.000e+00   -59.438   -59.434     0.004     31.22
S(-2)         2.441e-23
   HS-             1.493e-23   1.224e-23   -22.826   -22.912    -0.086     21.17
   H2S             9.480e-24   9.572e-24   -23.023   -23.019     0.004     37.20
   S-2             5.512e-29   2.645e-29   -28.259   -28.578    -0.319     (0)  
S(6)          1.539e-02
   SO4-2           1.048e-02   5.009e-03    -1.980    -2.300    -0.321     16.41
   CaSO4           4.914e-03   4.961e-03    -2.309    -2.304     0.004      7.88
   HSO4-           9.530e-08   7.890e-08    -7.021    -7.103    -0.082     35.97
   CaHSO4+         5.853e-09   4.846e-09    -8.233    -8.315    -0.082     (0)  

------------------------------Saturation indices-------------------------------

	Phase               SI   log IAP   log K(310 K,   1 atm)

	Anhydrite        -0.21     -4.59   -4.38  CaSO4
	Gypsum            0.00     -4.59   -4.59  CaSO4:2H2O
	H2(g)           -11.49    -14.61   -3.12  H2
	H2O(g)           -1.21     -0.00    1.21  H2O
	H2S(g)          -21.85    -29.82   -7.97  H2S
	O2(g)           -56.47    -59.43   -2.97  O2
	Sulfur          -16.22    -11.61    4.61  S


Reaction step 14.

Using solution 1.	Pure water
Using pure phase assemblage 1.	
Using temperature 1.	

-------------------------------Phase assemblage--------------------------------

                                                      Moles in assemblage
Phase               SI  log IAP  log K(T, P)   Initial       Final       Delta

Anhydrite        -0.20    -4.59     -4.39    1.000e+00           0  -1.000e+00
Gypsum            0.00    -4.59     -4.59    1.000e+00   1.985e+00   9.851e-01

-----------------------------Solution composition------------------------------

	Elements           Molality       Moles

	Ca                1.540e-02   1.485e-02
	S                 1.540e-02   1.485e-02

----------------------------Description of solution----------------------------

                                       pH  =   6.897      Charge balance
                                       pe  =  -1.192      Adjusted to redox equilibrium
       Specific Conductance (uS/cm, 38 oC) = 2822
                          Density (g/cm3)  =   0.99501
                        Activity of water  =   1.000
                           Ionic strength  =   4.188e-02
                       Mass of water (kg)  =   9.645e-01
                 Total alkalinity (eq/kg)  =   2.289e-10
                    Total carbon (mol/kg)  =   0.000e+00
                       Total CO2 (mol/kg)  =   0.000e+00
                      Temperature (deg C)  =  38.00
                  Electrical balance (eq)  =  -2.112e-10
 Percent error, 100*(Cat-|An|)/(Cat+|An|)  =  -0.00
                               Iterations  =  16
                                  Total H  = 1.070718e+02
                                  Total O  = 5.359533e+01

----------------------------Distribution of species----------------------------

                                               Log       Log       Log    mole V
   Species          Molality    Activity  Molality  Activity     Gamma   cm3/mol

   OH-             2.462e-07   2.018e-07    -6.609    -6.695    -0.086     -3.46
   H+              1.477e-07   1.267e-07    -6.831    -6.897    -0.066      0.00
   H2O             5.551e+01   9.996e-01     1.744    -0.000     0.000     18.14
Ca            1.540e-02
   Ca+2            1.047e-02   5.099e-03    -1.980    -2.293    -0.312    -17.13
   CaSO4           4.929e-03   4.977e-03    -2.307    -2.303     0.004      7.91
   CaOH+           8.064e-09   6.675e-09    -8.093    -8.176    -0.082     (0)  
   CaHSO4+         6.144e-09   5.085e-09    -8.212    -8.294    -0.082     (0)  
H(0)          4.823e-15
   H2              2.411e-15   2.435e-15   -14.618   -14.614     0.004     28.59
O(0)          0.000e+00
   O2              0.000e+00   0.000e+00   -59.137   -59.133     0.004     31.28
S(-2)         1.874e-23
   HS-             1.144e-23   9.376e-24   -22.942   -23.028    -0.086     21.19
   H2S             7.296e-24   7.367e-24   -23.137   -23.133     0.004     37.21
   S-2             4.376e-29   2.098e-29   -28.359   -28.678    -0.319     (0)  
S(6)          1.540e-02
   SO4-2           1.047e-02   4.999e-03    -1.980    -2.301    -0.321     16.45
   CaSO4           4.929e-03   4.977e-03    -2.307    -2.303     0.004      7.91
   HSO4-           1.002e-07   8.296e-08    -6.999    -7.081    -0.082     36.01
   CaHSO4+         6.144e-09   5.085e-09    -8.212    -8.294    -0.082     (0)  

------------------------------Saturation indices-------------------------------

	Phase               SI   log IAP   log K(311 K,   1 atm)

	Anhydrite        -0.20     -4.59   -4.39  CaSO4
	Gypsum            0.00     -4.59   -4.59  CaSO4:2H2O
	H2(g)           -11.49    -14.61   -3.13  H2
	H2O(g)           -1.18     -0.00    1.18  H2O
	H2S(g)          -21.96    -29.93   -7.97  H2S
	O2(g)           -56.16    -59.13   -2.97  O2
	Sulfur          -16.31    -11.72    4.59  S


Reaction step 15.

Using solution 1.	Pure water
Using pure phase assemblage 1.	
Using temperature 1.	

-------------------------------Phase assemblage--------------------------------

                                                      Moles in assemblage
Phase               SI  log IAP  log K(T, P)   Initial       Final       Delta

Anhydrite        -0.19    -4.60     -4.40    1.000e+00           0  -1.000e+00
Gypsum           -0.00    -4.60     -4.60    1.000e+00   1.985e+00   9.851e-01

-----------------------------Solution composition------------------------------

	Elements           Molality       Moles

	Ca                1.540e-02   1.486e-02
	S                 1.540e-02   1.486e-02

----------------------------Description of solution----------------------------

                                       pH  =   6.885      Charge balance
                                       pe  =  -1.183      Adjusted to redox equilibrium
       Specific Conductance (uS/cm, 39 oC) = 2872
                          Density (g/cm3)  =   0.99464
                        Activity of water  =   1.000
                           Ionic strength  =   4.184e-02
                       Mass of water (kg)  =   9.645e-01
                 Total alkalinity (eq/kg)  =   2.289e-10
                    Total carbon (mol/kg)  =   0.000e+00
                       Total CO2 (mol/kg)  =   0.000e+00
                      Temperature (deg C)  =  39.00
                  Electrical balance (eq)  =  -2.125e-10
 Percent error, 100*(Cat-|An|)/(Cat+|An|)  =  -0.00
                               Iterations  =  16
                                  Total H  = 1.070719e+02
                                  Total O  = 5.359535e+01

----------------------------Distribution of species----------------------------

                                               Log       Log       Log    mole V
   Species          Molality    Activity  Molality  Activity     Gamma   cm3/mol

   OH-             2.561e-07   2.098e-07    -6.592    -6.678    -0.087     -3.44
   H+              1.519e-07   1.303e-07    -6.819    -6.885    -0.067      0.00
   H2O             5.551e+01   9.996e-01     1.744    -0.000     0.000     18.15
Ca            1.540e-02
   Ca+2            1.046e-02   5.089e-03    -1.981    -2.293    -0.313    -17.10
   CaSO4           4.943e-03   4.991e-03    -2.306    -2.302     0.004      7.94
   CaOH+           7.829e-09   6.478e-09    -8.106    -8.189    -0.082     (0)  
   CaHSO4+         6.447e-09   5.335e-09    -8.191    -8.273    -0.082     (0)  
H(0)          4.850e-15
   H2              2.425e-15   2.449e-15   -14.615   -14.611     0.004     28.59
O(0)          0.000e+00
   O2              0.000e+00   0.000e+00   -58.847   -58.843     0.004     31.34
S(-2)         1.497e-23
   HS-             9.124e-24   7.476e-24   -23.040   -23.126    -0.087     21.21
   H2S             5.847e-24   5.904e-24   -23.233   -23.229     0.004     37.21
   S-2             3.617e-29   1.732e-29   -28.442   -28.762    -0.320     (0)  
S(6)          1.540e-02
   SO4-2           1.046e-02   4.989e-03    -1.981    -2.302    -0.321     16.48
   CaSO4           4.943e-03   4.991e-03    -2.306    -2.302     0.004      7.94
   HSO4-           1.054e-07   8.720e-08    -6.977    -7.059    -0.082     36.05
   CaHSO4+         6.447e-09   5.335e-09    -8.191    -8.273    -0.082     (0)  

------------------------------Saturation indices-------------------------------

	Phase               SI   log IAP   log K(312 K,   1 atm)

	Anhydrite        -0.19     -4.60   -4.40  CaSO4
	Gypsum           -0.00     -4.60   -4.60  CaSO4:2H2O
	H2(g)           -11.48    -14.61   -3.13  H2
	H2O(g)           -1.16     -0.00    1.16  H2O
	H2S(g)          -22.05    -30.01   -7.96  H2S
	O2(g)           -55.86    -58.84   -2.98  O2
	Sulfur          -16.40    -11.83    4.57  S


Reaction step 16.

Using solution 1.	Pure water
Using pure phase assemblage 1.	
Using temperature 1.	

-------------------------------Phase assemblage--------------------------------

                                                      Moles in assemblage
Phase               SI  log IAP  log K(T, P)   Initial       Final       Delta

Anhydrite        -0.18    -4.60     -4.42    1.000e+00           0  -1.000e+00
Gypsum           -0.00    -4.60     -4.60    1.000e+00   1.985e+00   9.851e-01

-----------------------------Solution composition------------------------------

	Elements           Molality       Moles

	Ca                1.540e-02   1.486e-02
	S                 1.540e-02   1.486e-02

----------------------------Description of solution----------------------------

                                       pH  =   6.873      Charge balance
                                       pe  =  -1.172      Adjusted to redox equilibrium
       Specific Conductance (uS/cm, 40 oC) = 2923
                          Density (g/cm3)  =   0.99426
                        Activity of water  =   1.000
                           Ionic strength  =   4.179e-02
                       Mass of water (kg)  =   9.645e-01
                 Total alkalinity (eq/kg)  =   2.289e-10
                    Total carbon (mol/kg)  =   0.000e+00
                       Total CO2 (mol/kg)  =   0.000e+00
                      Temperature (deg C)  =  40.00
                  Electrical balance (eq)  =  -2.138e-10
 Percent error, 100*(Cat-|An|)/(Cat+|An|)  =  -0.00
                               Iterations  =  16
                                  Total H  = 1.070719e+02
                                  Total O  = 5.359535e+01

----------------------------Distribution of species----------------------------

                                               Log       Log       Log    mole V
   Species          Molality    Activity  Molality  Activity     Gamma   cm3/mol

   OH-             2.663e-07   2.181e-07    -6.575    -6.661    -0.087     -3.43
   H+              1.561e-07   1.339e-07    -6.806    -6.873    -0.067      0.00
   H2O             5.551e+01   9.996e-01     1.744    -0.000     0.000     18.16
Ca            1.540e-02
   Ca+2            1.045e-02   5.078e-03    -1.981    -2.294    -0.313    -17.07
   CaSO4           4.956e-03   5.004e-03    -2.305    -2.301     0.004      7.96
   CaOH+           7.602e-09   6.288e-09    -8.119    -8.201    -0.082     (0)  
   CaHSO4+         6.762e-09   5.594e-09    -8.170    -8.252    -0.082     (0)  
H(0)          4.810e-15
   H2              2.405e-15   2.428e-15   -14.619   -14.615     0.004     28.59
O(0)          0.000e+00
   O2              0.000e+00   0.000e+00   -58.546   -58.542     0.004     31.40
S(-2)         1.132e-23
   HS-             6.886e-24   5.641e-24   -23.162   -23.249    -0.087     21.23
   H2S             4.435e-24   4.478e-24   -23.353   -23.349     0.004     37.21
   S-2             2.828e-29   1.353e-29   -28.549   -28.869    -0.320     (0)  
S(6)          1.540e-02
   SO4-2           1.045e-02   4.978e-03    -1.981    -2.303    -0.322     16.51
   CaSO4           4.956e-03   5.004e-03    -2.305    -2.301     0.004      7.96
   HSO4-           1.108e-07   9.163e-08    -6.956    -7.038    -0.082     36.08
   CaHSO4+         6.762e-09   5.594e-09    -8.170    -8.252    -0.082     (0)  

------------------------------Saturation indices-------------------------------

	Phase               SI   log IAP   log K(313 K,   1 atm)

	Anhydrite        -0.18     -4.60   -4.42  CaSO4
	Gypsum           -0.00     -4.60   -4.60  CaSO4:2H2O
	H2(g)           -11.49    -14.61   -3.13  H2
	H2O(g)           -1.14     -0.00    1.14  H2O
	H2S(g)          -22.16    -30.12   -7.96  H2S
	O2(g)           -55.56    -58.54   -2.98  O2
	Sulfur          -16.49    -11.95    4.55  S


Reaction step 17.

Using solution 1.	Pure water
Using pure phase assemblage 1.	
Using temperature 1.	

-------------------------------Phase assemblage--------------------------------

                                                      Moles in assemblage
Phase               SI  log IAP  log K(T, P)   Initial       Final       Delta

Anhydrite        -0.17    -4.60     -4.43    1.000e+00           0  -1.000e+00
Gypsum           -0.00    -4.60     -4.60    1.000e+00   1.985e+00   9.851e-01

-----------------------------Solution composition------------------------------

	Elements           Molality       Moles

	Ca                1.540e-02   1.485e-02
	S                 1.540e-02   1.485e-02

----------------------------Description of solution----------------------------

                                       pH  =   6.861      Charge balance
                                       pe  =  -1.163      Adjusted to redox equilibrium
       Specific Conductance (uS/cm, 41 oC) = 2973
                          Density (g/cm3)  =   0.99387
                        Activity of water  =   1.000
                           Ionic strength  =   4.174e-02
                       Mass of water (kg)  =   9.645e-01
                 Total alkalinity (eq/kg)  =   2.289e-10
                    Total carbon (mol/kg)  =   0.000e+00
                       Total CO2 (mol/kg)  =   0.000e+00
                      Temperature (deg C)  =  41.00
                  Electrical balance (eq)  =  -2.166e-10
 Percent error, 100*(Cat-|An|)/(Cat+|An|)  =  -0.00
                               Iterations  =  19
                                  Total H  = 1.070719e+02
                                  Total O  = 5.359534e+01

----------------------------Distribution of species----------------------------

                                               Log       Log       Log    mole V
   Species          Molality    Activity  Molality  Activity     Gamma   cm3/mol

   OH-             2.768e-07   2.267e-07    -6.558    -6.645    -0.087     -3.42
   H+              1.605e-07   1.376e-07    -6.795    -6.861    -0.067      0.00
   H2O             5.551e+01   9.996e-01     1.744    -0.000     0.000     18.16
Ca            1.540e-02
   Ca+2            1.043e-02   5.066e-03    -1.982    -2.295    -0.314    -17.04
   CaSO4           4.967e-03   5.015e-03    -2.304    -2.300     0.004      7.99
   CaOH+           7.383e-09   6.106e-09    -8.132    -8.214    -0.083     (0)  
   CaHSO4+         7.089e-09   5.863e-09    -8.149    -8.232    -0.083     (0)  
H(0)          4.845e-15
   H2              2.423e-15   2.446e-15   -14.616   -14.612     0.004     28.59
O(0)          0.000e+00
   O2              0.000e+00   0.000e+00   -58.261   -58.257     0.004     31.46
S(-2)         9.130e-24
   HS-             5.542e-24   4.539e-24   -23.256   -23.343    -0.087     21.25
   H2S             3.588e-24   3.623e-24   -23.445   -23.441     0.004     37.22
   S-2             2.358e-29   1.127e-29   -28.627   -28.948    -0.321     (0)  
S(6)          1.540e-02
   SO4-2           1.043e-02   4.967e-03    -1.982    -2.304    -0.322     16.53
   CaSO4           4.967e-03   5.015e-03    -2.304    -2.300     0.004      7.99
   HSO4-           1.164e-07   9.625e-08    -6.934    -7.017    -0.083     36.12
   CaHSO4+         7.089e-09   5.863e-09    -8.149    -8.232    -0.083     (0)  

------------------------------Saturation indices-------------------------------

	Phase               SI   log IAP   log K(314 K,   1 atm)

	Anhydrite        -0.17     -4.60   -4.43  CaSO4
	Gypsum           -0.00     -4.60   -4.60  CaSO4:2H2O
	H2(g)           -11.48    -14.61   -3.13  H2
	H2O(g)           -1.12     -0.00    1.12  H2O
	H2S(g)          -22.24    -30.20   -7.96  H2S
	O2(g)           -55.27    -58.26   -2.99  O2
	Sulfur          -16.57    -12.05    4.53  S


Reaction step 18.

Using solution 1.	Pure water
Using pure phase assemblage 1.	
Using temperature 1.	

-------------------------------Phase assemblage--------------------------------

                                                      Moles in assemblage
Phase               SI  log IAP  log K(T, P)   Initial       Final       Delta

Anhydrite        -0.16    -4.60     -4.45    1.000e+00           0  -1.000e+00
Gypsum            0.00    -4.60     -4.60    1.000e+00   1.985e+00   9.852e-01

-----------------------------Solution composition------------------------------

	Elements           Molality       Moles

	Ca                1.540e-02   1.485e-02
	S                 1.540e-02   1.485e-02

----------------------------Description of solution----------------------------

                                       pH  =   6.850      Charge balance
                                       pe  =  -1.154      Adjusted to redox equilibrium
       Specific Conductance (uS/cm, 42 oC) = 3023
                          Density (g/cm3)  =   0.99347
                        Activity of water  =   1.000
                           Ionic strength  =   4.168e-02
                       Mass of water (kg)  =   9.645e-01
                 Total alkalinity (eq/kg)  =   2.289e-10
                    Total carbon (mol/kg)  =   0.000e+00
                       Total CO2 (mol/kg)  =   0.000e+00
                      Temperature (deg C)  =  42.00
                  Electrical balance (eq)  =  -2.159e-10
 Percent error, 100*(Cat-|An|)/(Cat+|An|)  =  -0.00
                               Iterations  =  16
                                  Total H  = 1.070718e+02
                                  Total O  = 5.359532e+01

----------------------------Distribution of species----------------------------

                                               Log       Log       Log    mole V
   Species          Molality    Activity  Molality  Activity     Gamma   cm3/mol

   OH-             2.876e-07   2.355e-07    -6.541    -6.628    -0.087     -3.41
   H+              1.649e-07   1.414e-07    -6.783    -6.850    -0.067      0.00
   H2O             5.551e+01   9.996e-01     1.744    -0.000     0.000     18.17
Ca            1.540e-02
   Ca+2            1.042e-02   5.054e-03    -1.982    -2.296    -0.314    -17.01
   CaSO4           4.977e-03   5.025e-03    -2.303    -2.299     0.004      8.01
   CaHSO4+         7.429e-09   6.142e-09    -8.129    -8.212    -0.083     (0)  
   CaOH+           7.172e-09   5.930e-09    -8.144    -8.227    -0.083     (0)  
H(0)          4.850e-15
   H2              2.425e-15   2.449e-15   -14.615   -14.611     0.004     28.59
O(0)          0.000e+00
   O2              0.000e+00   0.000e+00   -57.972   -57.968     0.004     31.51
S(-2)         7.192e-24
   HS-             4.356e-24   3.567e-24   -23.361   -23.448    -0.087     21.26
   H2S             2.835e-24   2.862e-24   -23.547   -23.543     0.004     37.22
   S-2             1.920e-29   9.168e-30   -28.717   -29.038    -0.321     (0)  
S(6)          1.540e-02
   SO4-2           1.042e-02   4.956e-03    -1.982    -2.305    -0.323     16.55
   CaSO4           4.977e-03   5.025e-03    -2.303    -2.299     0.004      8.01
   HSO4-           1.223e-07   1.011e-07    -6.913    -6.995    -0.083     36.15
   CaHSO4+         7.429e-09   6.142e-09    -8.129    -8.212    -0.083     (0)  

------------------------------Saturation indices-------------------------------

	Phase               SI   log IAP   log K(315 K,   1 atm)

	Anhydrite        -0.16     -4.60   -4.45  CaSO4
	Gypsum            0.00     -4.60   -4.60  CaSO4:2H2O
	H2(g)           -11.48    -14.61   -3.13  H2
	H2O(g)           -1.09     -0.00    1.09  H2O
	H2S(g)          -22.34    -30.30   -7.96  H2S
	O2(g)           -54.97    -57.97   -2.99  O2
	Sulfur          -16.66    -12.15    4.51  S


Reaction step 19.

Using solution 1.	Pure water
Using pure phase assemblage 1.	
Using temperature 1.	

-------------------------------Phase assemblage--------------------------------

                                                      Moles in assemblage
Phase               SI  log IAP  log K(T, P)   Initial       Final       Delta

Anhydrite        -0.14    -4.60     -4.46    1.000e+00           0  -1.000e+00
Gypsum           -0.00    -4.60     -4.60    1.000e+00   1.985e+00   9.852e-01

-----------------------------Solution composition------------------------------

	Elements           Molality       Moles

	Ca                1.539e-02   1.484e-02
	S                 1.539e-02   1.484e-02

----------------------------Description of solution----------------------------

                                       pH  =   6.838      Charge balance
                                       pe  =  -1.144      Adjusted to redox equilibrium
       Specific Conductance (uS/cm, 43 oC) = 3073
                          Density (g/cm3)  =   0.99307
                        Activity of water  =   1.000
                           Ionic strength  =   4.161e-02
                       Mass of water (kg)  =   9.645e-01
                 Total alkalinity (eq/kg)  =   2.289e-10
                    Total carbon (mol/kg)  =   0.000e+00
                       Total CO2 (mol/kg)  =   0.000e+00
                      Temperature (deg C)  =  43.00
                  Electrical balance (eq)  =  -2.183e-10
 Percent error, 100*(Cat-|An|)/(Cat+|An|)  =  -0.00
                               Iterations  =  19
                                  Total H  = 1.070718e+02
                                  Total O  = 5.359527e+01

----------------------------Distribution of species----------------------------

                                               Log       Log       Log    mole V
   Species          Molality    Activity  Molality  Activity     Gamma   cm3/mol

   OH-             2.988e-07   2.446e-07    -6.525    -6.612    -0.087     -3.41
   H+              1.694e-07   1.452e-07    -6.771    -6.838    -0.067      0.00
   H2O             5.551e+01   9.996e-01     1.744    -0.000     0.000     18.18
Ca            1.539e-02
   Ca+2            1.040e-02   5.042e-03    -1.983    -2.297    -0.315    -16.99
   CaSO4           4.986e-03   5.034e-03    -2.302    -2.298     0.004      8.04
   CaHSO4+         7.782e-09   6.432e-09    -8.109    -8.192    -0.083     (0)  
   CaOH+           6.969e-09   5.760e-09    -8.157    -8.240    -0.083     (0)  
H(0)          4.836e-15
   H2              2.418e-15   2.441e-15   -14.617   -14.612     0.004     28.59
O(0)          0.000e+00
   O2              0.000e+00   0.000e+00   -57.682   -57.677     0.004     31.57
S(-2)         5.581e-24
   HS-             3.374e-24   2.762e-24   -23.472   -23.559    -0.087     21.27
   H2S             2.208e-24   2.229e-24   -23.656   -23.652     0.004     37.22
   S-2             1.540e-29   7.348e-30   -28.812   -29.134    -0.321     (0)  
S(6)          1.539e-02
   SO4-2           1.040e-02   4.943e-03    -1.983    -2.306    -0.323     16.56
   CaSO4           4.986e-03   5.034e-03    -2.302    -2.298     0.004      8.04
   HSO4-           1.284e-07   1.061e-07    -6.891    -6.974    -0.083     36.18
   CaHSO4+         7.782e-09   6.432e-09    -8.109    -8.192    -0.083     (0)  

------------------------------Saturation indices-------------------------------

	Phase               SI   log IAP   log K(316 K,   1 atm)

	Anhydrite        -0.14     -4.60   -4.46  CaSO4
	Gypsum           -0.00     -4.60   -4.60  CaSO4:2H2O
	H2(g)           -11.48    -14.61   -3.13  H2
	H2O(g)           -1.07     -0.00    1.07  H2O
	H2S(g)          -22.44    -30.40   -7.96  H2S
	O2(g)           -54.68    -57.68   -3.00  O2
	Sulfur          -16.75    -12.26    4.49  S


Reaction step 20.

Using solution 1.	Pure water
Using pure phase assemblage 1.	
Using temperature 1.	

-------------------------------Phase assemblage--------------------------------

                                                      Moles in assemblage
Phase               SI  log IAP  log K(T, P)   Initial       Final       Delta

Anhydrite        -0.13    -4.61     -4.47    1.000e+00           0  -1.000e+00
Gypsum           -0.00    -4.61     -4.61    1.000e+00   1.985e+00   9.852e-01

-----------------------------Solution composition------------------------------

	Elements           Molality       Moles

	Ca                1.538e-02   1.483e-02
	S                 1.538e-02   1.483e-02

----------------------------Description of solution----------------------------

                                       pH  =   6.827      Charge balance
                                       pe  =  -1.133      Adjusted to redox equilibrium
       Specific Conductance (uS/cm, 44 oC) = 3122
                          Density (g/cm3)  =   0.99266
                        Activity of water  =   1.000
                           Ionic strength  =   4.154e-02
                       Mass of water (kg)  =   9.645e-01
                 Total alkalinity (eq/kg)  =   2.289e-10
                    Total carbon (mol/kg)  =   0.000e+00
                       Total CO2 (mol/kg)  =   0.000e+00
                      Temperature (deg C)  =  44.00
                  Electrical balance (eq)  =  -2.177e-10
 Percent error, 100*(Cat-|An|)/(Cat+|An|)  =  -0.00
                               Iterations  =  16
                                  Total H  = 1.070718e+02
                                  Total O  = 5.359521e+01

----------------------------Distribution of species----------------------------

                                               Log       Log       Log    mole V
   Species          Molality    Activity  Molality  Activity     Gamma   cm3/mol

   OH-             3.103e-07   2.539e-07    -6.508    -6.595    -0.087     -3.40
   H+              1.739e-07   1.490e-07    -6.760    -6.827    -0.067      0.00
   H2O             5.551e+01   9.996e-01     1.744    -0.000     0.000     18.19
Ca            1.538e-02
   Ca+2            1.039e-02   5.028e-03    -1.984    -2.299    -0.315    -16.96
   CaSO4           4.993e-03   5.041e-03    -2.302    -2.297     0.004      8.06
   CaHSO4+         8.149e-09   6.733e-09    -8.089    -8.172    -0.083     (0)  
   CaOH+           6.773e-09   5.597e-09    -8.169    -8.252    -0.083     (0)  
H(0)          4.822e-15
   H2              2.411e-15   2.434e-15   -14.618   -14.614     0.004     28.59
O(0)          0.000e+00
   O2              0.000e+00   0.000e+00   -57.393   -57.389     0.004     31.62
S(-2)         4.337e-24
   HS-             2.615e-24   2.140e-24   -23.582   -23.670    -0.087     21.29
   H2S             1.721e-24   1.738e-24   -23.764   -23.760     0.004     37.22
   S-2             1.237e-29   5.895e-30   -28.908   -29.229    -0.322     (0)  
S(6)          1.538e-02
   SO4-2           1.039e-02   4.931e-03    -1.984    -2.307    -0.324     16.57
   CaSO4           4.993e-03   5.041e-03    -2.302    -2.297     0.004      8.06
   HSO4-           1.348e-07   1.114e-07    -6.870    -6.953    -0.083     36.21
   CaHSO4+         8.149e-09   6.733e-09    -8.089    -8.172    -0.083     (0)  

------------------------------Saturation indices-------------------------------

[...]

------------------------------Saturation indices-------------------------------

	Phase               SI   log IAP   log K(343 K,   1 atm)

	Anhydrite        -0.00     -4.85   -4.85  CaSO4
	Gypsum           -0.15     -4.85   -4.69  CaSO4:2H2O
	H2(g)           -11.51    -14.64   -3.14  H2
	H2O(g)           -0.52     -0.00    0.51  H2O
	H2S(g)          -25.04    -32.97   -7.93  H2S
	O2(g)           -47.39    -50.47   -3.09  O2
	Sulfur          -19.05    -15.08    3.97  S


Reaction step 47.

Using solution 1.	Pure water
Using pure phase assemblage 1.	
Using temperature 1.	

-------------------------------Phase assemblage--------------------------------

                                                      Moles in assemblage
Phase               SI  log IAP  log K(T, P)   Initial       Final       Delta

Anhydrite         0.00    -4.86     -4.86    1.000e+00   1.989e+00   9.890e-01
Gypsum           -0.16    -4.86     -4.70    1.000e+00           0  -1.000e+00

-----------------------------Solution composition------------------------------

	Elements           Molality       Moles

	Ca                1.062e-02   1.100e-02
	S                 1.062e-02   1.100e-02

----------------------------Description of solution----------------------------

                                       pH  =   6.550      Charge balance
                                       pe  =  -0.892      Adjusted to redox equilibrium
       Specific Conductance (uS/cm, 71 oC) = 3434
                          Density (g/cm3)  =   0.97858
                        Activity of water  =   1.000
                           Ionic strength  =   2.934e-02
                       Mass of water (kg)  =   1.036e+00
                 Total alkalinity (eq/kg)  =   2.131e-10
                    Total carbon (mol/kg)  =   0.000e+00
                       Total CO2 (mol/kg)  =   0.000e+00
                      Temperature (deg C)  =  71.00
                  Electrical balance (eq)  =  -2.208e-10
 Percent error, 100*(Cat-|An|)/(Cat+|An|)  =  -0.00
                               Iterations  =  19
                                  Total H  = 1.150124e+02
                                  Total O  = 5.755022e+01

----------------------------Distribution of species----------------------------

                                               Log       Log       Log    mole V
   Species          Molality    Activity  Molality  Activity     Gamma   cm3/mol

   OH-             7.233e-07   6.020e-07    -6.141    -6.220    -0.080     -4.00
   H+              3.256e-07   2.815e-07    -6.487    -6.550    -0.063      0.00
   H2O             5.551e+01   9.997e-01     1.744    -0.000     0.000     18.44
Ca            1.062e-02
   Ca+2            7.335e-03   3.739e-03    -2.135    -2.427    -0.293    -16.98
   CaSO4           3.284e-03   3.306e-03    -2.484    -2.481     0.003      8.54
   CaHSO4+         1.722e-08   1.442e-08    -7.764    -7.841    -0.077     (0)  
   CaOH+           2.630e-09   2.203e-09    -8.580    -8.657    -0.077     (0)  
H(0)          4.556e-15
   H2              2.278e-15   2.294e-15   -14.642   -14.639     0.003     28.58
O(0)          0.000e+00
   O2              0.000e+00   0.000e+00   -50.243   -50.240     0.003     32.83
S(-2)         7.179e-27
   HS-             3.853e-27   3.207e-27   -26.414   -26.494    -0.080     21.12
   H2S             3.326e-27   3.349e-27   -26.478   -26.475     0.003     37.27
   S-2             4.183e-32   2.109e-32   -31.378   -31.676    -0.298     (0)  
S(6)          1.062e-02
   SO4-2           7.335e-03   3.687e-03    -2.135    -2.433    -0.299     15.21
   CaSO4           3.284e-03   3.306e-03    -2.484    -2.481     0.003      8.54
   HSO4-           3.830e-07   3.208e-07    -6.417    -6.494    -0.077     36.46
   CaHSO4+         1.722e-08   1.442e-08    -7.764    -7.841    -0.077     (0)  

------------------------------Saturation indices-------------------------------

	Phase               SI   log IAP   log K(344 K,   1 atm)

	Anhydrite         0.00     -4.86   -4.86  CaSO4
	Gypsum           -0.16     -4.86   -4.70  CaSO4:2H2O
	H2(g)           -11.50    -14.64   -3.14  H2
	H2O(g)           -0.50     -0.00    0.50  H2O
	H2S(g)          -25.11    -33.04   -7.93  H2S
	O2(g)           -47.15    -50.24   -3.09  O2
	Sulfur          -19.11    -15.16    3.95  S


Reaction step 48.

Using solution 1.	Pure water
Using pure phase assemblage 1.	
Using temperature 1.	

-------------------------------Phase assemblage--------------------------------

                                                      Moles in assemblage
Phase               SI  log IAP  log K(T, P)   Initial       Final       Delta

Anhydrite         0.00    -4.88     -4.88    1.000e+00   1.989e+00   9.893e-01
Gypsum           -0.17    -4.88     -4.70    1.000e+00           0  -1.000e+00

-----------------------------Solution composition------------------------------

	Elements           Molality       Moles

	Ca                1.037e-02   1.075e-02
	S                 1.037e-02   1.075e-02

----------------------------Description of solution----------------------------

                                       pH  =   6.541      Charge balance
                                       pe  =  -0.885      Adjusted to redox equilibrium
       Specific Conductance (uS/cm, 72 oC) = 3413
                          Density (g/cm3)  =   0.97797
                        Activity of water  =   1.000
                           Ionic strength  =   2.872e-02
                       Mass of water (kg)  =   1.036e+00
                 Total alkalinity (eq/kg)  =   2.131e-10
                    Total carbon (mol/kg)  =   0.000e+00
                       Total CO2 (mol/kg)  =   0.000e+00
                      Temperature (deg C)  =  72.00
                  Electrical balance (eq)  =  -2.208e-10
 Percent error, 100*(Cat-|An|)/(Cat+|An|)  =  -0.00
                               Iterations  =  19
                                  Total H  = 1.150124e+02
                                  Total O  = 5.754920e+01

----------------------------Distribution of species----------------------------

                                               Log       Log       Log    mole V
   Species          Molality    Activity  Molality  Activity     Gamma   cm3/mol

   OH-             7.423e-07   6.186e-07    -6.129    -6.209    -0.079     -4.05
   H+              3.323e-07   2.875e-07    -6.479    -6.541    -0.063      0.00
   H2O             5.551e+01   9.997e-01     1.744    -0.000     0.000     18.45
Ca            1.037e-02
   Ca+2            7.181e-03   3.675e-03    -2.144    -2.435    -0.291    -17.00
   CaSO4           3.191e-03   3.212e-03    -2.496    -2.493     0.003      8.55
   CaHSO4+         1.745e-08   1.463e-08    -7.758    -7.835    -0.076     (0)  
   CaOH+           2.528e-09   2.120e-09    -8.597    -8.674    -0.076     (0)  
H(0)          4.569e-15
   H2              2.284e-15   2.300e-15   -14.641   -14.638     0.003     28.58
O(0)          0.000e+00
   O2              0.000e+00   0.000e+00   -50.004   -50.001     0.003     32.87
S(-2)         5.847e-27
   HS-             3.118e-27   2.598e-27   -26.506   -26.585    -0.079     21.10
   H2S             2.729e-27   2.747e-27   -26.564   -26.561     0.003     37.27
   S-2             3.479e-32   1.761e-32   -31.459   -31.754    -0.296     (0)  
S(6)          1.037e-02
   SO4-2           7.181e-03   3.625e-03    -2.144    -2.441    -0.297     15.11
   CaSO4           3.191e-03   3.212e-03    -2.496    -2.493     0.003      8.55
   HSO4-           3.950e-07   3.312e-07    -6.403    -6.480    -0.076     36.45
   CaHSO4+         1.745e-08   1.463e-08    -7.758    -7.835    -0.076     (0)  

------------------------------Saturation indices-------------------------------

	Phase               SI   log IAP   log K(345 K,   1 atm)

	Anhydrite         0.00     -4.88   -4.88  CaSO4
	Gypsum           -0.17     -4.88   -4.70  CaSO4:2H2O
	H2(g)           -11.50    -14.64   -3.13  H2
	H2O(g)           -0.48     -0.00    0.48  H2O
	H2S(g)          -25.20    -33.13   -7.93  H2S
	O2(g)           -46.91    -50.00   -3.09  O2
	Sulfur          -19.18    -15.25    3.93  S


Reaction step 49.

Using solution 1.	Pure water
Using pure phase assemblage 1.	
Using temperature 1.	

-------------------------------Phase assemblage--------------------------------

                                                      Moles in assemblage
Phase               SI  log IAP  log K(T, P)   Initial       Final       Delta

Anhydrite         0.00    -4.89     -4.89    1.000e+00   1.990e+00   9.895e-01
Gypsum           -0.18    -4.89     -4.71    1.000e+00           0  -1.000e+00

-----------------------------Solution composition------------------------------

	Elements           Molality       Moles

	Ca                1.013e-02   1.050e-02
	S                 1.013e-02   1.050e-02

----------------------------Description of solution----------------------------

                                       pH  =   6.532      Charge balance
                                       pe  =  -0.775      Adjusted to redox equilibrium
       Specific Conductance (uS/cm, 73 oC) = 3392
                          Density (g/cm3)  =   0.97736
                        Activity of water  =   1.000
                           Ionic strength  =   2.812e-02
                       Mass of water (kg)  =   1.036e+00
                 Total alkalinity (eq/kg)  =   2.131e-10
                    Total carbon (mol/kg)  =   0.000e+00
                       Total CO2 (mol/kg)  =   0.000e+00
                      Temperature (deg C)  =  73.00
                  Electrical balance (eq)  =  -2.208e-10
 Percent error, 100*(Cat-|An|)/(Cat+|An|)  =  -0.00
                               Iterations  =  19
                                  Total H  = 1.150124e+02
                                  Total O  = 5.754820e+01

----------------------------Distribution of species----------------------------

                                               Log       Log       Log    mole V
   Species          Molality    Activity  Molality  Activity     Gamma   cm3/mol

   OH-             7.617e-07   6.355e-07    -6.118    -6.197    -0.079     -4.09
   H+              3.390e-07   2.936e-07    -6.470    -6.532    -0.062      0.00
   H2O             5.551e+01   9.997e-01     1.744    -0.000     0.000     18.46
Ca            1.013e-02
   Ca+2            7.030e-03   3.611e-03    -2.153    -2.442    -0.289    -17.02
   CaSO4           3.101e-03   3.121e-03    -2.509    -2.506     0.003      8.57
   CaHSO4+         1.768e-08   1.484e-08    -7.752    -7.828    -0.076     (0)  
   CaOH+           2.431e-09   2.041e-09    -8.614    -8.690    -0.076     (0)  
H(0)          2.852e-15
   H2              1.426e-15   1.435e-15   -14.846   -14.843     0.003     28.58
O(0)          0.000e+00
   O2              0.000e+00   0.000e+00   -49.354   -49.351     0.003     32.91
S(-2)         7.157e-28
   HS-             3.792e-28   3.164e-28   -27.421   -27.500    -0.079     21.07
   H2S             3.365e-28   3.387e-28   -27.473   -27.470     0.003     37.28
   S-2             4.348e-33   2.210e-33   -32.362   -32.656    -0.294     (0)  
S(6)          1.013e-02
   SO4-2           7.029e-03   3.564e-03    -2.153    -2.448    -0.295     15.00
   CaSO4           3.101e-03   3.121e-03    -2.509    -2.506     0.003      8.57
   HSO4-           4.072e-07   3.419e-07    -6.390    -6.466    -0.076     36.44
   CaHSO4+         1.768e-08   1.484e-08    -7.752    -7.828    -0.076     (0)  

------------------------------Saturation indices-------------------------------

	Phase               SI   log IAP   log K(346 K,   1 atm)

	Anhydrite         0.00     -4.89   -4.89  CaSO4
	Gypsum           -0.18     -4.89   -4.71  CaSO4:2H2O
	H2(g)           -11.71    -14.84   -3.13  H2
	H2O(g)           -0.46     -0.00    0.46  H2O
	H2S(g)          -26.10    -34.03   -7.93  H2S
	O2(g)           -46.26    -49.35   -3.09  O2
	Sulfur          -19.87    -15.96    3.92  S


Reaction step 50.

Using solution 1.	Pure water
Using pure phase assemblage 1.	
Using temperature 1.	

-------------------------------Phase assemblage--------------------------------

                                                      Moles in assemblage
Phase               SI  log IAP  log K(T, P)   Initial       Final       Delta

Anhydrite        -0.00    -4.91     -4.91    1.000e+00   1.990e+00   9.897e-01
Gypsum           -0.19    -4.91     -4.71    1.000e+00           0  -1.000e+00

-----------------------------Solution composition------------------------------

	Elements           Molality       Moles

	Ca                9.894e-03   1.025e-02
	S                 9.894e-03   1.025e-02

----------------------------Description of solution----------------------------

                                       pH  =   6.523      Charge balance
                                       pe  =  -0.870      Adjusted to redox equilibrium
       Specific Conductance (uS/cm, 74 oC) = 3370
                          Density (g/cm3)  =   0.97674
                        Activity of water  =   1.000
                           Ionic strength  =   2.753e-02
                       Mass of water (kg)  =   1.036e+00
                 Total alkalinity (eq/kg)  =   2.131e-10
                    Total carbon (mol/kg)  =   0.000e+00
                       Total CO2 (mol/kg)  =   0.000e+00
                      Temperature (deg C)  =  74.00
                  Electrical balance (eq)  =  -2.208e-10
 Percent error, 100*(Cat-|An|)/(Cat+|An|)  =  -0.00
                               Iterations  =  19
                                  Total H  = 1.150124e+02
                                  Total O  = 5.754722e+01

----------------------------Distribution of species----------------------------

                                               Log       Log       Log    mole V
   Species          Molality    Activity  Molality  Activity     Gamma   cm3/mol

   OH-             7.814e-07   6.527e-07    -6.107    -6.185    -0.078     -4.14
   H+              3.458e-07   2.997e-07    -6.461    -6.523    -0.062      0.00
   H2O             5.551e+01   9.997e-01     1.744    -0.000     0.000     18.47
Ca            9.894e-03
   Ca+2            6.882e-03   3.549e-03    -2.162    -2.450    -0.288    -17.04
   CaSO4           3.013e-03   3.032e-03    -2.521    -2.518     0.003      8.58
   CaHSO4+         1.791e-08   1.506e-08    -7.747    -7.822    -0.075     (0)  
   CaOH+           2.338e-09   1.965e-09    -8.631    -8.707    -0.075     (0)  
H(0)          4.562e-15
   H2              2.281e-15   2.295e-15   -14.642   -14.639     0.003     28.58
O(0)          0.000e+00
   O2              0.000e+00   0.000e+00   -49.523   -49.521     0.003     32.95
S(-2)         3.783e-27
   HS-             1.991e-27   1.663e-27   -26.701   -26.779    -0.078     21.05
   H2S             1.792e-27   1.803e-27   -26.747   -26.744     0.003     37.28
   S-2             2.346e-32   1.197e-32   -31.630   -31.922    -0.292     (0)  
S(6)          9.894e-03
   SO4-2           6.881e-03   3.503e-03    -2.162    -2.456    -0.293     14.89
   CaSO4           3.013e-03   3.032e-03    -2.521    -2.518     0.003      8.58
   HSO4-           4.198e-07   3.528e-07    -6.377    -6.452    -0.075     36.43
   CaHSO4+         1.791e-08   1.506e-08    -7.747    -7.822    -0.075     (0)  

------------------------------Saturation indices-------------------------------

	Phase               SI   log IAP   log K(347 K,   1 atm)

	Anhydrite        -0.00     -4.91   -4.91  CaSO4
	Gypsum           -0.19     -4.91   -4.71  CaSO4:2H2O
	H2(g)           -11.51    -14.64   -3.13  H2
	H2O(g)           -0.44     -0.00    0.44  H2O
	H2S(g)          -25.37    -33.30   -7.93  H2S
	O2(g)           -46.42    -49.52   -3.10  O2
	Sulfur          -19.34    -15.44    3.90  S


Reaction step 51.

Using solution 1.	Pure water
Using pure phase assemblage 1.	
Using temperature 1.	

-------------------------------Phase assemblage--------------------------------

                                                      Moles in assemblage
Phase               SI  log IAP  log K(T, P)   Initial       Final       Delta

Anhydrite        -0.00    -4.92     -4.92    1.000e+00   1.990e+00   9.900e-01
Gypsum           -0.20    -4.92     -4.72    1.000e+00           0  -1.000e+00

-----------------------------Solution composition------------------------------

	Elements           Molality       Moles

	Ca                9.663e-03   1.001e-02
	S                 9.663e-03   1.001e-02

----------------------------Description of solution----------------------------

                                       pH  =   6.515      Charge balance
                                       pe  =  -0.932      Adjusted to redox equilibrium
       Specific Conductance (uS/cm, 75 oC) = 3348
                          Density (g/cm3)  =   0.97611
                        Activity of water  =   1.000
                           Ionic strength  =   2.695e-02
                       Mass of water (kg)  =   1.036e+00
                 Total alkalinity (eq/kg)  =   2.131e-10
                    Total carbon (mol/kg)  =   0.000e+00
                       Total CO2 (mol/kg)  =   0.000e+00
                      Temperature (deg C)  =  75.00
                  Electrical balance (eq)  =  -2.208e-10
 Percent error, 100*(Cat-|An|)/(Cat+|An|)  =  -0.00
                               Iterations  =  19
                                  Total H  = 1.150124e+02
                                  Total O  = 5.754626e+01

----------------------------Distribution of species----------------------------

                                               Log       Log       Log    mole V
   Species          Molality    Activity  Molality  Activity     Gamma   cm3/mol

   OH-             8.014e-07   6.702e-07    -6.096    -6.174    -0.078     -4.19
   H+              3.526e-07   3.058e-07    -6.453    -6.515    -0.062      0.00
   H2O             5.551e+01   9.997e-01     1.744    -0.000     0.000     18.48
Ca            9.663e-03
   Ca+2            6.736e-03   3.488e-03    -2.172    -2.457    -0.286    -17.07
   CaSO4           2.927e-03   2.945e-03    -2.534    -2.531     0.003      8.59
   CaHSO4+         1.814e-08   1.527e-08    -7.741    -7.816    -0.075     (0)  
   CaOH+           2.249e-09   1.892e-09    -8.648    -8.723    -0.075     (0)  
H(0)          6.286e-15
   H2              3.143e-15   3.162e-15   -14.503   -14.500     0.003     28.58
O(0)          0.000e+00
   O2              0.000e+00   0.000e+00   -49.564   -49.561     0.003     32.99
S(-2)         1.102e-26
   HS-             5.761e-27   4.818e-27   -26.240   -26.317    -0.078     21.02
   H2S             5.258e-27   5.291e-27   -26.279   -26.276     0.003     37.28
   S-2             6.974e-32   3.574e-32   -31.157   -31.447    -0.290     (0)  
S(6)          9.663e-03
   SO4-2           6.736e-03   3.444e-03    -2.172    -2.463    -0.291     14.77
   CaSO4           2.927e-03   2.945e-03    -2.534    -2.531     0.003      8.59
   HSO4-           4.327e-07   3.640e-07    -6.364    -6.439    -0.075     36.42
   CaHSO4+         1.814e-08   1.527e-08    -7.741    -7.816    -0.075     (0)  

------------------------------Saturation indices-------------------------------

	Phase               SI   log IAP   log K(348 K,   1 atm)

	Anhydrite        -0.00     -4.92   -4.92  CaSO4
	Gypsum           -0.20     -4.92   -4.72  CaSO4:2H2O
	H2(g)           -11.37    -14.50   -3.13  H2
	H2O(g)           -0.42     -0.00    0.42  H2O
	H2S(g)          -24.90    -32.83   -7.93  H2S
	O2(g)           -46.46    -49.56   -3.10  O2
	Sulfur          -18.99    -15.11    3.88  S


------------------
End of simulation.
------------------

------------------------------------
Reading input data for simulation 2.
------------------------------------

-----------
End of run.
-----------

