   Input file: ex2
  Output file: ex2.out
Database file: ../database/phreeqc.dat

------------------
Reading data base.
------------------

	SOLUTION_MASTER_SPECIES
	SOLUTION_SPECIES
	PHASES
	EXCHANGE_MASTER_SPECIES
	EXCHANGE_SPECIES
	SURFACE_MASTER_SPECIES
	SURFACE_SPECIES
	RATES
	END
------------------------------------
Reading input data for simulation 1.
------------------------------------

	DATABASE ../database/phreeqc.dat
	knobs
		logfile
	TITLE 
	Example 2.--Temperature dependence of solubility
	            of gypsum and anhydrite
	SOLUTION 1 Pure water
	        pH      7.0
	        temp    25.0                
	EQUILIBRIUM_PHASES 1
	        Gypsum          0.0     1.0
	        Anhydrite       0.0     1.0
	REACTION_TEMPERATURE 1
	        25.0 75.0 in 51 steps
	SELECTED_OUTPUT
	        file   ex2.pun
	        si     anhydrite  gypsum
	END
-----
TITLE
-----

Example 2.--Temperature dependence of solubility
            of gypsum and anhydrite

-------------------------------------------
Beginning of initial solution calculations.
-------------------------------------------

Initial solution 1.	Pure water

-----------------------------Solution composition------------------------------

	Elements           Molality       Moles

	Pure water     

----------------------------Description of solution----------------------------

                                       pH  =   7.000    
                                       pe  =   4.000    
       Specific Conductance (uS/cm, 25 oC) = 0
                          Density (g/cm3)  =   0.99704
                        Activity of water  =   1.000
                           Ionic strength  =   1.002e-07
                       Mass of water (kg)  =   1.000e+00
                 Total alkalinity (eq/kg)  =   2.208e-10
                    Total carbon (mol/kg)  =   0.000e+00
                       Total CO2 (mol/kg)  =   0.000e+00
                      Temperature (deg C)  =  25.00
                  Electrical balance (eq)  =  -2.208e-10
 Percent error, 100*(Cat-|An|)/(Cat+|An|)  =  -0.11
                               Iterations  =   0
                                  Total H  = 1.110124e+02
                                  Total O  = 5.550622e+01

----------------------------Distribution of species----------------------------

                                               Log       Log       Log    mole V
   Species          Molality    Activity  Molality  Activity     Gamma   cm3/mol

   OH-             1.003e-07   1.002e-07    -6.999    -6.999    -0.000     -4.11
   H+              1.001e-07   1.000e-07    -7.000    -7.000    -0.000      0.00
   H2O             5.551e+01   1.000e+00     1.744     0.000     0.000     18.07
H(0)          1.416e-25
   H2              7.079e-26   7.079e-26   -25.150   -25.150     0.000     28.61
O(0)          0.000e+00
   O2              0.000e+00   0.000e+00   -42.080   -42.080     0.000     30.40

------------------------------Saturation indices-------------------------------

	Phase               SI   log IAP   log K(298 K,   1 atm)

	H2(g)           -22.05    -25.15   -3.10  H2
	H2O(g)           -1.50      0.00    1.50  H2O
	O2(g)           -39.19    -42.08   -2.89  O2


-----------------------------------------
Beginning of batch-reaction calculations.
-----------------------------------------

Reaction step 1.

Using solution 1.	Pure water
Using pure phase assemblage 1.	
Using temperature 1.	

-------------------------------Phase assemblage--------------------------------

                                                      Moles in assemblage
Phase               SI  log IAP  log K(T, P)   Initial       Final       Delta

Anhydrite        -0.36    -4.58     -4.22    1.000e+00           0  -1.000e+00
Gypsum           -0.00    -4.58     -4.58    1.000e+00   1.985e+00   9.855e-01

-----------------------------Solution composition------------------------------

	Elements           Molality       Moles

	Ca                1.508e-02   1.455e-02
	S                 1.508e-02   1.455e-02

----------------------------Description of solution----------------------------

                                       pH  =   7.067      Charge balance
                                       pe  =  -1.336      Adjusted to redox equilibrium
       Specific Conductance (uS/cm, 25 oC) = 2161
                          Density (g/cm3)  =   0.99908
                        Activity of water  =   1.000
                           Ionic strength  =   4.183e-02
                       Mass of water (kg)  =   9.645e-01
                 Total alkalinity (eq/kg)  =   2.289e-10
                    Total carbon (mol/kg)  =   0.000e+00
                       Total CO2 (mol/kg)  =   0.000e+00
                      Temperature (deg C)  =  25.00
                  Electrical balance (eq)  =  -2.208e-10
 Percent error, 100*(Cat-|An|)/(Cat+|An|)  =  -0.00
                               Iterations  =  20
                                  Total H  = 1.070706e+02
                                  Total O  = 5.359351e+01

----------------------------Distribution of species----------------------------

                                               Log       Log       Log    mole V
   Species          Molality    Activity  Molality  Activity     Gamma   cm3/mol

   OH-             1.419e-07   1.168e-07    -6.848    -6.933    -0.084     -3.85
   H+              9.962e-08   8.577e-08    -7.002    -7.067    -0.065      0.00
   H2O             5.551e+01   9.996e-01     1.744    -0.000     0.000     18.07
Ca            1.508e-02
   Ca+2            1.046e-02   5.176e-03    -1.981    -2.286    -0.305    -17.77
   CaSO4           4.627e-03   4.672e-03    -2.335    -2.331     0.004      7.50
   CaOH+           1.204e-08   1.001e-08    -7.919    -7.999    -0.080     (0)  
   CaHSO4+         3.168e-09   2.634e-09    -8.499    -8.579    -0.080     (0)  
H(0)          4.849e-15
   H2              2.424e-15   2.448e-15   -14.615   -14.611     0.004     28.61
O(0)          0.000e+00
   O2              0.000e+00   0.000e+00   -63.162   -63.158     0.004     30.40
S(-2)         5.450e-22
   HS-             3.382e-22   2.784e-22   -21.471   -21.555    -0.084     20.76
   H2S             2.068e-22   2.088e-22   -21.684   -21.680     0.004     37.16
   S-2             8.049e-28   3.921e-28   -27.094   -27.407    -0.312     (0)  
S(6)          1.508e-02
   SO4-2           1.046e-02   5.075e-03    -1.981    -2.295    -0.314     15.55
   CaSO4           4.627e-03   4.672e-03    -2.335    -2.331     0.004      7.50
   HSO4-           5.090e-08   4.232e-08    -7.293    -7.373    -0.080     35.33
   CaHSO4+         3.168e-09   2.634e-09    -8.499    -8.579    -0.080     (0)  

------------------------------Saturation indices-------------------------------

	Phase               SI   log IAP   log K(298 K,   1 atm)

	Anhydrite        -0.36     -4.58   -4.22  CaSO4
	Gypsum           -0.00     -4.58   -4.58  CaSO4:2H2O
	H2(g)           -11.51    -14.61   -3.10  H2
	H2O(g)           -1.50     -0.00    1.50  H2O
	H2S(g)          -20.63    -28.62   -7.99  H2S
	O2(g)           -60.27    -63.16   -2.89  O2
	Sulfur          -15.10    -10.22    4.88  S


Reaction step 2.

Using solution 1.	Pure water
Using pure phase assemblage 1.	
Using temperature 1.	

-------------------------------Phase assemblage--------------------------------

                                                      Moles in assemblage
Phase               SI  log IAP  log K(T, P)   Initial       Final       Delta

Anhydrite        -0.35    -4.58     -4.23    1.000e+00           0  -1.000e+00
Gypsum           -0.00    -4.58     -4.58    1.000e+00   1.985e+00   9.854e-01

-----------------------------Solution composition------------------------------

	Elements           Molality       Moles

	Ca                1.513e-02   1.459e-02
	S                 1.513e-02   1.459e-02

----------------------------Description of solution----------------------------

                                       pH  =   7.053      Charge balance
                                       pe  =  -1.324      Adjusted to redox equilibrium
       Specific Conductance (uS/cm, 26 oC) = 2212
                          Density (g/cm3)  =   0.99882
                        Activity of water  =   1.000
                           Ionic strength  =   4.188e-02
                       Mass of water (kg)  =   9.645e-01
                 Total alkalinity (eq/kg)  =   2.289e-10
                    Total carbon (mol/kg)  =   0.000e+00
                       Total CO2 (mol/kg)  =   0.000e+00
                      Temperature (deg C)  =  26.00
                  Electrical balance (eq)  =  -2.208e-10
 Percent error, 100*(Cat-|An|)/(Cat+|An|)  =  -0.00
                               Iterations  =  23
                                  Total H  = 1.070708e+02
                                  Total O  = 5.359376e+01

----------------------------Distribution of species----------------------------

                                               Log       Log       Log    mole V
   Species          Molality    Activity  Molality  Activity     Gamma   cm3/mol

   OH-             1.485e-07   1.222e-07    -6.828    -6.913    -0.085     -3.81
   H+              1.029e-07   8.853e-08    -6.988    -7.053    -0.065      0.00
   H2O             5.551e+01   9.996e-01     1.744    -0.000     0.000     18.07
Ca            1.513e-02
   Ca+2            1.047e-02   5.174e-03    -1.980    -2.286    -0.306    -17.70
   CaSO4           4.658e-03   4.703e-03    -2.332    -2.328     0.004      7.54
   CaOH+           1.167e-08   9.696e-09    -7.933    -8.013    -0.080     (0)  
   CaHSO4+         3.341e-09   2.777e-09    -8.476    -8.556    -0.080     (0)  
H(0)          4.837e-15
   H2              2.419e-15   2.442e-15   -14.616   -14.612     0.004     28.60
O(0)          0.000e+00
   O2              0.000e+00   0.000e+00   -62.838   -62.834     0.004     30.48
S(-2)         4.131e-22
   HS-             2.562e-22   2.109e-22   -21.591   -21.676    -0.085     20.81
   H2S             1.569e-22   1.584e-22   -21.804   -21.800     0.004     37.17
   S-2             6.331e-28   3.080e-28   -27.199   -27.511    -0.313     (0)  
S(6)          1.513e-02
   SO4-2           1.047e-02   5.073e-03    -1.980    -2.295    -0.315     15.65
   CaSO4           4.658e-03   4.703e-03    -2.332    -2.328     0.004      7.54
   HSO4-           5.371e-08   4.463e-08    -7.270    -7.350    -0.080     35.39
   CaHSO4+         3.341e-09   2.777e-09    -8.476    -8.556    -0.080     (0)  

------------------------------Saturation indices-------------------------------

	Phase               SI   log IAP   log K(299 K,   1 atm)

	Anhydrite        -0.35     -4.58   -4.23  CaSO4
	Gypsum           -0.00     -4.58   -4.58  CaSO4:2H2O
	H2(g)           -11.51    -14.61   -3.10  H2
	H2O(g)           -1.48     -0.00    1.48  H2O
	H2S(g)          -20.74    -28.73   -7.99  H2S
	O2(g)           -59.93    -62.83   -2.90  O2
	Sulfur          -15.20    -10.34    4.86  S


Reaction step 3.

Using solution 1.	Pure water
Using pure phase assemblage 1.	
Using temperature 1.	

-------------------------------Phase assemblage--------------------------------

                                                      Moles in assemblage
Phase               SI  log IAP  log K(T, P)   Initial       Final       Delta

Anhydrite        -0.34    -4.58     -4.24    1.000e+00           0  -1.000e+00
Gypsum            0.00    -4.58     -4.58    1.000e+00   1.985e+00   9.854e-01

-----------------------------Solution composition------------------------------

	Elements           Molality       Moles

	Ca                1.517e-02   1.463e-02
	S                 1.517e-02   1.463e-02

----------------------------Description of solution----------------------------

                                       pH  =   7.039      Charge balance
                                       pe  =  -1.312      Adjusted to redox equilibrium
       Specific Conductance (uS/cm, 27 oC) = 2262
                          Density (g/cm3)  =   0.99855
                        Activity of water  =   1.000
                           Ionic strength  =   4.191e-02
                       Mass of water (kg)  =   9.645e-01
                 Total alkalinity (eq/kg)  =   2.289e-10
                    Total carbon (mol/kg)  =   0.000e+00
                       Total CO2 (mol/kg)  =   0.000e+00
                      Temperature (deg C)  =  27.00
                  Electrical balance (eq)  =  -2.208e-10
 Percent error, 100*(Cat-|An|)/(Cat+|An|)  =  -0.00
                               Iterations  =  21
                                  Total H  = 1.070709e+02
                                  Total O  = 5.359398e+01

----------------------------Distribution of species----------------------------

                                               Log       Log       Log    mole V
   Species          Molality    Activity  Molality  Activity     Gamma   cm3/mol

   OH-             1.553e-07   1.277e-07    -6.809    -6.894    -0.085     -3.76
   H+              1.062e-07   9.136e-08    -6.974    -7.039    -0.065      0.00
   H2O             5.551e+01   9.996e-01     1.744    -0.000     0.000     18.08
Ca            1.517e-02
   Ca+2            1.048e-02   5.172e-03    -1.980    -2.286    -0.307    -17.64
   CaSO4           4.688e-03   4.733e-03    -2.329    -2.325     0.004      7.57
   CaOH+           1.130e-08   9.391e-09    -7.947    -8.027    -0.081     (0)  
   CaHSO4+         3.523e-09   2.926e-09    -8.453    -8.534    -0.081     (0)  
H(0)          4.838e-15
   H2              2.419e-15   2.442e-15   -14.616   -14.612     0.004     28.60
O(0)          0.000e+00
   O2              0.000e+00   0.000e+00   -62.519   -62.515     0.004     30.55
S(-2)         3.169e-22
   HS-             1.964e-22   1.616e-22   -21.707   -21.792    -0.085     20.85
   H2S             1.205e-22   1.217e-22   -21.919   -21.915     0.004     37.17
   S-2             5.039e-28   2.448e-28   -27.298   -27.611    -0.314     (0)  
S(6)          1.517e-02
   SO4-2           1.048e-02   5.070e-03    -1.980    -2.295    -0.315     15.75
   CaSO4           4.688e-03   4.733e-03    -2.329    -2.325     0.004      7.57
   HSO4-           5.665e-08   4.706e-08    -7.247    -7.327    -0.081     35.46
   CaHSO4+         3.523e-09   2.926e-09    -8.453    -8.534    -0.081     (0)  

------------------------------Saturation indices-------------------------------

	Phase               SI   log IAP   log K(300 K,   1 atm)

	Anhydrite        -0.34     -4.58   -4.24  CaSO4
	Gypsum            0.00     -4.58   -4.58  CaSO4:2H2O
	H2(g)           -11.51    -14.61   -3.11  H2
	H2O(g)           -1.45     -0.00    1.45  H2O
	H2S(g)          -20.84    -28.83   -7.99  H2S
	O2(g)           -59.61    -62.51   -2.91  O2
	Sulfur          -15.30    -10.46    4.84  S


Reaction step 4.

Using solution 1.	Pure water
Using pure phase assemblage 1.	
Using temperature 1.	

-------------------------------Phase assemblage--------------------------------

                                                      Moles in assemblage
Phase               SI  log IAP  log K(T, P)   Initial       Final       Delta

Anhydrite        -0.33    -4.58     -4.26    1.000e+00           0  -1.000e+00
Gypsum            0.00    -4.58     -4.58    1.000e+00   1.985e+00   9.853e-01

-----------------------------Solution composition------------------------------

	Elements           Molality       Moles

	Ca                1.520e-02   1.466e-02
	S                 1.520e-02   1.466e-02

----------------------------Description of solution----------------------------

                                       pH  =   7.026      Charge balance
                                       pe  =  -1.302      Adjusted to redox equilibrium
       Specific Conductance (uS/cm, 28 oC) = 2313
                          Density (g/cm3)  =   0.99828
                        Activity of water  =   1.000
                           Ionic strength  =   4.194e-02
                       Mass of water (kg)  =   9.645e-01
                 Total alkalinity (eq/kg)  =   2.289e-10
                    Total carbon (mol/kg)  =   0.000e+00
                       Total CO2 (mol/kg)  =   0.000e+00
                      Temperature (deg C)  =  28.00
                  Electrical balance (eq)  =  -2.208e-10
 Percent error, 100*(Cat-|An|)/(Cat+|An|)  =  -0.00
                               Iterations  =  18
                                  Total H  = 1.070711e+02
                                  Total O  = 5.359419e+01

----------------------------Distribution of species----------------------------

                                               Log       Log       Log    mole V
   Species          Molality    Activity  Molality  Activity     Gamma   cm3/mol

   OH-             1.623e-07   1.335e-07    -6.790    -6.875    -0.085     -3.72
   H+              1.096e-07   9.425e-08    -6.960    -7.026    -0.065      0.00
   H2O             5.551e+01   9.996e-01     1.744    -0.000     0.000     18.08
Ca            1.520e-02
   Ca+2            1.049e-02   5.168e-03    -1.979    -2.287    -0.307    -17.58
   CaSO4           4.716e-03   4.762e-03    -2.326    -2.322     0.004      7.61
   CaOH+           1.095e-08   9.097e-09    -7.960    -8.041    -0.081     (0)  
   CaHSO4+         3.713e-09   3.083e-09    -8.430    -8.511    -0.081     (0)  
H(0)          4.850e-15
   H2              2.425e-15   2.449e-15   -14.615   -14.611     0.004     28.60
O(0)          0.000e+00
   O2              0.000e+00   0.000e+00   -62.204   -62.200     0.004     30.63
S(-2)         2.460e-22
   HS-             1.523e-22   1.253e-22   -21.817   -21.902    -0.085     20.89
   H2S             9.367e-23   9.458e-23   -22.028   -22.024     0.004     37.18
   S-2             4.055e-28   1.967e-28   -27.392   -27.706    -0.314     (0)  
S(6)          1.520e-02
   SO4-2           1.049e-02   5.067e-03    -1.979    -2.295    -0.316     15.84
   CaSO4           4.716e-03   4.762e-03    -2.326    -2.322     0.004      7.61
   HSO4-           5.975e-08   4.961e-08    -7.224    -7.304    -0.081     35.52
   CaHSO4+         3.713e-09   3.083e-09    -8.430    -8.511    -0.081     (0)  

------------------------------Saturation indices-------------------------------

	Phase               SI   log IAP   log K(301 K,   1 atm)

	Anhydrite        -0.33     -4.58   -4.26  CaSO4
	Gypsum            0.00     -4.58   -4.58  CaSO4:2H2O
	H2(g)           -11.50    -14.61   -3.11  H2
	H2O(g)           -1.43     -0.00    1.43  H2O
	H2S(g)          -20.94    -28.93   -7.99  H2S
	O2(g)           -59.29    -62.20   -2.91  O2
	Sulfur          -15.39    -10.58    4.81  S


Reaction step 5.

Using solution 1.	Pure water
Using pure phase assemblage 1.	
Using temperature 1.	

-------------------------------Phase assemblage--------------------------------

                                                      Moles in assemblage
Phase               SI  log IAP  log K(T, P)   Initial       Final       Delta

Anhydrite        -0.31    -4.58     -4.27    1.000e+00           0  -1.000e+00
Gypsum           -0.00    -4.58     -4.58    1.000e+00   1.985e+00   9.853e-01

-----------------------------Solution composition------------------------------

	Elements           Molality       Moles

	Ca                1.524e-02   1.469e-02
	S                 1.524e-02   1.469e-02

----------------------------Description of solution----------------------------

                                       pH  =   7.012      Charge balance
                                       pe  =  10.866      Adjusted to redox equilibrium
       Specific Conductance (uS/cm, 29 oC) = 2364
                          Density (g/cm3)  =   0.99799
                        Activity of water  =   1.000
                           Ionic strength  =   4.197e-02
                       Mass of water (kg)  =   9.645e-01
                 Total alkalinity (eq/kg)  =   2.289e-10
                    Total carbon (mol/kg)  =   0.000e+00
                       Total CO2 (mol/kg)  =   0.000e+00
                      Temperature (deg C)  =  29.00
                  Electrical balance (eq)  =  -4.253e-10
 Percent error, 100*(Cat-|An|)/(Cat+|An|)  =  -0.00
                               Iterations  =  46
                                  Total H  = 1.070712e+02
                                  Total O  = 5.359438e+01

----------------------------Distribution of species----------------------------

                                               Log       Log       Log    mole V
   Species          Molality    Activity  Molality  Activity     Gamma   cm3/mol

   OH-             1.696e-07   1.394e-07    -6.771    -6.856    -0.085     -3.68
   H+              1.130e-07   9.722e-08    -6.947    -7.012    -0.065      0.00
   H2O             5.551e+01   9.996e-01     1.744    -0.000     0.000     18.09
Ca            1.524e-02
   Ca+2            1.049e-02   5.164e-03    -1.979    -2.287    -0.308    -17.53
   CaSO4           4.744e-03   4.790e-03    -2.324    -2.320     0.004      7.64
   CaOH+           1.062e-08   8.813e-09    -7.974    -8.055    -0.081     (0)  
   CaHSO4+         3.911e-09   3.247e-09    -8.408    -8.489    -0.081     (0)  
H(0)          2.366e-39
   H2              1.183e-39   1.194e-39   -38.927   -38.923     0.004     28.60
O(0)          1.086e-13
   O2              5.432e-14   5.484e-14   -13.265   -13.261     0.004     30.70
S(-2)         0.000e+00
   HS-             0.000e+00   0.000e+00  -119.179  -119.264    -0.085     20.93
   H2S             0.000e+00   0.000e+00  -119.389  -119.385     0.004     37.18
   S-2             0.000e+00   0.000e+00  -124.737  -125.052    -0.315     (0)  
S(6)          1.524e-02
   SO4-2           1.049e-02   5.063e-03    -1.979    -2.296    -0.316     15.93
   CaSO4           4.744e-03   4.790e-03    -2.324    -2.320     0.004      7.64
   HSO4-           6.299e-08   5.229e-08    -7.201    -7.282    -0.081     35.58
   CaHSO4+         3.911e-09   3.247e-09    -8.408    -8.489    -0.081     (0)  

------------------------------Saturation indices-------------------------------

	Phase               SI   log IAP   log K(302 K,   1 atm)

	Anhydrite        -0.31     -4.58   -4.27  CaSO4
	Gypsum           -0.00     -4.58   -4.58  CaSO4:2H2O
	H2(g)           -35.81    -38.92   -3.11  H2
	H2O(g)           -1.40     -0.00    1.40  H2O
	H2S(g)         -118.29   -126.28   -7.98  H2S
	O2(g)           -10.34    -13.26   -2.92  O2
	Sulfur          -88.42    -83.63    4.79  S


Reaction step 6.

Using solution 1.	Pure water
Using pure phase assemblage 1.	
Using temperature 1.	

-------------------------------Phase assemblage--------------------------------

                                                      Moles in assemblage
Phase               SI  log IAP  log K(T, P)   Initial       Final       Delta

Anhydrite        -0.30    -4.58     -4.28    1.000e+00           0  -1.000e+00
Gypsum            0.00    -4.58     -4.58    1.000e+00   1.985e+00   9.853e-01

-----------------------------Solution composition------------------------------

	Elements           Molality       Moles

	Ca                1.527e-02   1.472e-02
	S                 1.527e-02   1.472e-02

----------------------------Description of solution----------------------------

                                       pH  =   6.999      Charge balance
                                       pe  =  -1.281      Adjusted to redox equilibrium
       Specific Conductance (uS/cm, 30 oC) = 2415
                          Density (g/cm3)  =   0.99769
                        Activity of water  =   1.000
                           Ionic strength  =   4.198e-02
                       Mass of water (kg)  =   9.645e-01
                 Total alkalinity (eq/kg)  =   2.289e-10
                    Total carbon (mol/kg)  =   0.000e+00
                       Total CO2 (mol/kg)  =   0.000e+00
                      Temperature (deg C)  =  30.00
                  Electrical balance (eq)  =  -2.208e-10
 Percent error, 100*(Cat-|An|)/(Cat+|An|)  =  -0.00
                               Iterations  =  19
                                  Total H  = 1.070713e+02
                                  Total O  = 5.359456e+01

----------------------------Distribution of species----------------------------

                                               Log       Log       Log    mole V
   Species          Molality    Activity  Molality  Activity     Gamma   cm3/mol

   OH-             1.770e-07   1.455e-07    -6.752    -6.837    -0.085     -3.65
   H+              1.166e-07   1.002e-07    -6.933    -6.999    -0.066      0.00
   H2O             5.551e+01   9.996e-01     1.744    -0.000     0.000     18.09
Ca            1.527e-02
   Ca+2            1.050e-02   5.160e-03    -1.979    -2.287    -0.308    -17.47
   CaSO4           4.770e-03   4.816e-03    -2.322    -2.317     0.004      7.68
   CaOH+           1.029e-08   8.539e-09    -7.988    -8.069    -0.081     (0)  
   CaHSO4+         4.119e-09   3.418e-09    -8.385    -8.466    -0.081     (0)  
H(0)          4.888e-15
   H2              2.444e-15   2.468e-15   -14.612   -14.608     0.004     28.60
O(0)          0.000e+00
   O2              0.000e+00   0.000e+00   -61.582   -61.578     0.004     30.77
S(-2)         1.504e-22
   HS-             9.297e-23   7.639e-23   -22.032   -22.117    -0.085     20.97
   H2S             5.748e-23   5.803e-23   -22.241   -22.236     0.004     37.18
   S-2             2.664e-28   1.289e-28   -27.574   -27.890    -0.315     (0)  
S(6)          1.527e-02
   SO4-2           1.050e-02   5.059e-03    -1.979    -2.296    -0.317     16.01
   CaSO4           4.770e-03   4.816e-03    -2.322    -2.317     0.004      7.68
   HSO4-           6.640e-08   5.510e-08    -7.178    -7.259    -0.081     35.63
   CaHSO4+         4.119e-09   3.418e-09    -8.385    -8.466    -0.081     (0)  

------------------------------Saturation indices-------------------------------

	Phase               SI   log IAP   log K(303 K,   1 atm)

	Anhydrite        -0.30     -4.58   -4.28  CaSO4
	Gypsum            0.00     -4.58   -4.58  CaSO4:2H2O
	H2(g)           -11.50    -14.61   -3.11  H2
	H2O(g)           -1.38     -0.00    1.38  H2O
	H2S(g)          -21.13    -29.12   -7.98  H2S
	O2(g)           -58.65    -61.58   -2.93  O2
	Sulfur          -15.57    -10.80    4.77  S


Reaction step 7.

Using solution 1.	Pure water
Using pure phase assemblage 1.	
Using temperature 1.	

-------------------------------Phase assemblage--------------------------------

                                                      Moles in assemblage
Phase               SI  log IAP  log K(T, P)   Initial       Final       Delta

Anhydrite        -0.29    -4.58     -4.29    1.000e+00           0  -1.000e+00
Gypsum           -0.00    -4.58     -4.58    1.000e+00   1.985e+00   9.853e-01

-----------------------------Solution composition------------------------------

	Elements           Molality       Moles

	Ca                1.529e-02   1.475e-02
	S                 1.529e-02   1.475e-02

----------------------------Description of solution----------------------------

                                       pH  =   6.986      Charge balance
                                       pe  =  -1.268      Adjusted to redox equilibrium
       Specific Conductance (uS/cm, 31 oC) = 2466
                          Density (g/cm3)  =   0.99739
                        Activity of water  =   1.000
                           Ionic strength  =   4.199e-02
                       Mass of water (kg)  =   9.645e-01
                 Total alkalinity (eq/kg)  =   2.289e-10
                    Total carbon (mol/kg)  =   0.000e+00
                       Total CO2 (mol/kg)  =   0.000e+00
                      Temperature (deg C)  =  31.00
                  Electrical balance (eq)  =  -2.208e-10
 Percent error, 100*(Cat-|An|)/(Cat+|An|)  =  -0.00
                               Iterations  =  20
                                  Total H  = 1.070714e+02
                                  Total O  = 5.359471e+01

----------------------------Distribution of species----------------------------

                                               Log       Log       Log    mole V
   Species          Molality    Activity  Molality  Activity     Gamma   cm3/mol

   OH-             1.848e-07   1.518e-07    -6.733    -6.819    -0.085     -3.62
   H+              1.202e-07   1.033e-07    -6.920    -6.986    -0.066      0.00
   H2O             5.551e+01   9.996e-01     1.744    -0.000     0.000     18.10
Ca            1.529e-02
   Ca+2            1.050e-02   5.154e-03    -1.979    -2.288    -0.309    -17.42
   CaSO4           4.794e-03   4.841e-03    -2.319    -2.315     0.004      7.71
   CaOH+           9.975e-09   8.275e-09    -8.001    -8.082    -0.081     (0)  
   CaHSO4+         4.337e-09   3.597e-09    -8.363    -8.444    -0.081     (0)  
H(0)          4.842e-15
   H2              2.421e-15   2.445e-15   -14.616   -14.612     0.004     28.60
O(0)          0.000e+00
   O2              0.000e+00   0.000e+00   -61.263   -61.259     0.004     30.84
S(-2)         1.118e-22
   HS-             6.902e-23   5.669e-23   -22.161   -22.246    -0.085     21.00
   H2S             4.280e-23   4.322e-23   -22.369   -22.364     0.004     37.19
   S-2             2.052e-28   9.914e-29   -27.688   -28.004    -0.316     (0)  
S(6)          1.529e-02
   SO4-2           1.050e-02   5.053e-03    -1.979    -2.296    -0.318     16.08
   CaSO4           4.794e-03   4.841e-03    -2.319    -2.315     0.004      7.71
   HSO4-           6.998e-08   5.805e-08    -7.155    -7.236    -0.081     35.69
   CaHSO4+         4.337e-09   3.597e-09    -8.363    -8.444    -0.081     (0)  

------------------------------Saturation indices-------------------------------

	Phase               SI   log IAP   log K(304 K,   1 atm)

	Anhydrite        -0.29     -4.58   -4.29  CaSO4
	Gypsum           -0.00     -4.58   -4.58  CaSO4:2H2O
	H2(g)           -11.50    -14.61   -3.11  H2
	H2O(g)           -1.35     -0.00    1.35  H2O
	H2S(g)          -21.25    -29.23   -7.98  H2S
	O2(g)           -58.33    -61.26   -2.93  O2
	Sulfur          -15.67    -10.93    4.74  S


Reaction step 8.

Using solution 1.	Pure water
Using pure phase assemblage 1.	
Using temperature 1.	

-------------------------------Phase assemblage--------------------------------

                                                      Moles in assemblage
Phase               SI  log IAP  log K(T, P)   Initial       Final       Delta

Anhydrite        -0.28    -4.59     -4.31    1.000e+00           0  -1.000e+00
Gypsum            0.00    -4.59     -4.59    1.000e+00   1.985e+00   9.852e-01

-----------------------------Solution composition------------------------------

	Elements           Molality       Moles

	Ca                1.532e-02   1.477e-02
	S                 1.532e-02   1.477e-02

----------------------------Description of solution----------------------------

                                       pH  =   6.973      Charge balance
                                       pe  =  -1.256      Adjusted to redox equilibrium
       Specific Conductance (uS/cm, 32 oC) = 2517
                          Density (g/cm3)  =   0.99707
                        Activity of water  =   1.000
                           Ionic strength  =   4.200e-02
                       Mass of water (kg)  =   9.645e-01
                 Total alkalinity (eq/kg)  =   2.289e-10
                    Total carbon (mol/kg)  =   0.000e+00
                       Total CO2 (mol/kg)  =   0.000e+00
                      Temperature (deg C)  =  32.00
                  Electrical balance (eq)  =  -2.208e-10
 Percent error, 100*(Cat-|An|)/(Cat+|An|)  =  -0.00
                               Iterations  =  20
                                  Total H  = 1.070715e+02
                                  Total O  = 5.359485e+01

----------------------------Distribution of species----------------------------

                                               Log       Log       Log    mole V
   Species          Molality    Activity  Molality  Activity     Gamma   cm3/mol

   OH-             1.928e-07   1.583e-07    -6.715    -6.801    -0.086     -3.59
   H+              1.239e-07   1.065e-07    -6.907    -6.973    -0.066      0.00
   H2O             5.551e+01   9.996e-01     1.744    -0.000     0.000     18.11
Ca            1.532e-02
   Ca+2            1.050e-02   5.148e-03    -1.979    -2.288    -0.309    -17.37
   CaSO4           4.817e-03   4.864e-03    -2.317    -2.313     0.004      7.74
   CaOH+           9.671e-09   8.020e-09    -8.015    -8.096    -0.081     (0)  
   CaHSO4+         4.563e-09   3.784e-09    -8.341    -8.422    -0.081     (0)  
H(0)          4.829e-15
   H2              2.414e-15   2.438e-15   -14.617   -14.613     0.004     28.60
O(0)          0.000e+00
   O2              0.000e+00   0.000e+00   -60.951   -60.947     0.004     30.91
S(-2)         8.550e-23
   HS-             5.270e-23   4.328e-23   -22.278   -22.364    -0.086     21.03
   H2S             3.279e-23   3.311e-23   -22.484   -22.480     0.004     37.19
   S-2             1.625e-28   7.842e-29   -27.789   -28.106    -0.316     (0)  
S(6)          1.532e-02
   SO4-2           1.050e-02   5.047e-03    -1.979    -2.297    -0.318     16.15
   CaSO4           4.817e-03   4.864e-03    -2.317    -2.313     0.004      7.74
   HSO4-           7.373e-08   6.114e-08    -7.132    -7.214    -0.081     35.74
   CaHSO4+         4.563e-09   3.784e-09    -8.341    -8.422    -0.081     (0)  

------------------------------Saturation indices-------------------------------

	Phase               SI   log IAP   log K(305 K,   1 atm)

	Anhydrite        -0.28     -4.59   -4.31  CaSO4
	Gypsum            0.00     -4.59   -4.59  CaSO4:2H2O
	H2(g)           -11.50    -14.61   -3.12  H2
	H2O(g)           -1.33     -0.00    1.33  H2O
	H2S(g)          -21.36    -29.34   -7.98  H2S
	O2(g)           -58.01    -60.95   -2.94  O2
	Sulfur          -15.77    -11.05    4.72  S


Reaction step 9.

Using solution 1.	Pure water
Using pure phase assemblage 1.	
Using temperature 1.	

-------------------------------Phase assemblage--------------------------------

                                                      Moles in assemblage
Phase               SI  log IAP  log K(T, P)   Initial       Final       Delta

Anhydrite        -0.27    -4.59     -4.32    1.000e+00           0  -1.000e+00
Gypsum           -0.00    -4.59     -4.59    1.000e+00   1.985e+00   9.852e-01

-----------------------------Solution composition------------------------------

	Elements           Molality       Moles

	Ca                1.534e-02   1.479e-02
	S                 1.534e-02   1.479e-02

----------------------------Description of solution----------------------------

                                       pH  =   6.960      Charge balance
                                       pe  =  -1.244      Adjusted to redox equilibrium
       Specific Conductance (uS/cm, 33 oC) = 2568
                          Density (g/cm3)  =   0.99675
                        Activity of water  =   1.000
                           Ionic strength  =   4.199e-02
                       Mass of water (kg)  =   9.645e-01
                 Total alkalinity (eq/kg)  =   2.289e-10
                    Total carbon (mol/kg)  =   0.000e+00
                       Total CO2 (mol/kg)  =   0.000e+00
                      Temperature (deg C)  =  33.00
                  Electrical balance (eq)  =  -2.208e-10
 Percent error, 100*(Cat-|An|)/(Cat+|An|)  =  -0.00
                               Iterations  =  17
                                  Total H  = 1.070716e+02
                                  Total O  = 5.359497e+01

----------------------------Distribution of species----------------------------

                                               Log       Log       Log    mole V
   Species          Molality    Activity  Molality  Activity     Gamma   cm3/mol

   OH-             2.010e-07   1.650e-07    -6.697    -6.783    -0.086     -3.56
   H+              1.277e-07   1.097e-07    -6.894    -6.960    -0.066      0.00
   H2O             5.551e+01   9.996e-01     1.744    -0.000     0.000     18.11
Ca            1.534e-02
   Ca+2            1.050e-02   5.142e-03    -1.979    -2.289    -0.310    -17.33
   CaSO4           4.839e-03   4.886e-03    -2.315    -2.311     0.004      7.77
   CaOH+           9.379e-09   7.775e-09    -8.028    -8.109    -0.081     (0)  
   CaHSO4+         4.800e-09   3.979e-09    -8.319    -8.400    -0.081     (0)  
H(0)          4.812e-15
   H2              2.406e-15   2.430e-15   -14.619   -14.614     0.004     28.60
O(0)          0.000e+00
   O2              0.000e+00   0.000e+00   -60.641   -60.637     0.004     30.97
S(-2)         6.530e-23
   HS-             4.020e-23   3.300e-23   -22.396   -22.481    -0.086     21.06
   H2S             2.510e-23   2.535e-23   -22.600   -22.596     0.004     37.19
   S-2             1.285e-28   6.195e-29   -27.891   -28.208    -0.317     (0)  
S(6)          1.534e-02
   SO4-2           1.050e-02   5.041e-03    -1.979    -2.298    -0.319     16.21
   CaSO4           4.839e-03   4.886e-03    -2.315    -2.311     0.004      7.77
   HSO4-           7.765e-08   6.437e-08    -7.110    -7.191    -0.081     35.79
   CaHSO4+         4.800e-09   3.979e-09    -8.319    -8.400    -0.081     (0)  

------------------------------Saturation indices-------------------------------

	Phase               SI   log IAP   log K(306 K,   1 atm)

	Anhydrite        -0.27     -4.59   -4.32  CaSO4
	Gypsum           -0.00     -4.59   -4.59  CaSO4:2H2O
	H2(g)           -11.50    -14.61   -3.12  H2
	H2O(g)           -1.30     -0.00    1.30  H2O
	H2S(g)          -21.47    -29.44   -7.97  H2S
	O2(g)           -57.69    -60.64   -2.95  O2
	Sulfur          -15.87    -11.17    4.70  S


Reaction step 10.

Using solution 1.	Pure water
Using pure phase assemblage 1.	
Using temperature 1.	

-------------------------------Phase assemblage--------------------------------

                                                      Moles in assemblage
Phase               SI  log IAP  log K(T, P)   Initial       Final       Delta

Anhydrite        -0.26    -4.59     -4.33    1.000e+00           0  -1.000e+00
Gypsum           -0.00    -4.59     -4.59    1.000e+00   1.985e+00   9.852e-01

-----------------------------Solution composition------------------------------

	Elements           Molality       Moles

	Ca                1.536e-02   1.481e-02
	S                 1.536e-02   1.481e-02

----------------------------Description of solution----------------------------

                                       pH  =   6.947      Charge balance
                                       pe  =  -1.234      Adjusted to redox equilibrium
       Specific Conductance (uS/cm, 34 oC) = 2619
                          Density (g/cm3)  =   0.99642
                        Activity of water  =   1.000
                           Ionic strength  =   4.198e-02
                       Mass of water (kg)  =   9.645e-01
                 Total alkalinity (eq/kg)  =   2.289e-10
                    Total carbon (mol/kg)  =   0.000e+00
                       Total CO2 (mol/kg)  =   0.000e+00
                      Temperature (deg C)  =  34.00
                  Electrical balance (eq)  =  -2.208e-10
 Percent error, 100*(Cat-|An|)/(Cat+|An|)  =  -0.00
                               Iterations  =  17
                                  Total H  = 1.070717e+02
                                  Total O  = 5.359508e+01

----------------------------Distribution of species----------------------------

                                               Log       Log       Log    mole V
   Species          Molality    Activity  Molality  Activity     Gamma   cm3/mol

   OH-             2.095e-07   1.719e-07    -6.679    -6.765    -0.086     -3.53
   H+              1.315e-07   1.130e-07    -6.881    -6.947    -0.066      0.00
   H2O             5.551e+01   9.996e-01     1.744    -0.000     0.000     18.12
Ca            1.536e-02
   Ca+2            1.050e-02   5.134e-03    -1.979    -2.290    -0.311    -17.28
   CaSO4           4.860e-03   4.907e-03    -2.313    -2.309     0.004      7.80
   CaOH+           9.096e-09   7.538e-09    -8.041    -8.123    -0.082     (0)  
   CaHSO4+         5.047e-09   4.183e-09    -8.297    -8.379    -0.082     (0)  
H(0)          4.811e-15
   H2              2.406e-15   2.429e-15   -14.619   -14.615     0.004     28.60
O(0)          0.000e+00
   O2              0.000e+00   0.000e+00   -60.336   -60.332     0.004     31.04
S(-2)         5.058e-23
   HS-             3.109e-23   2.552e-23   -22.507   -22.593    -0.086     21.09
   H2S             1.949e-23   1.968e-23   -22.710   -22.706     0.004     37.20
   S-2             1.031e-28   4.962e-29   -27.987   -28.304    -0.317     (0)  
S(6)          1.536e-02
   SO4-2           1.050e-02   5.034e-03    -1.979    -2.298    -0.319     16.27
   CaSO4           4.860e-03   4.907e-03    -2.313    -2.309     0.004      7.80
   HSO4-           8.177e-08   6.776e-08    -7.087    -7.169    -0.082     35.84
   CaHSO4+         5.047e-09   4.183e-09    -8.297    -8.379    -0.082     (0)  

------------------------------Saturation indices-------------------------------

	Phase               SI   log IAP   log K(307 K,   1 atm)

	Anhydrite        -0.26     -4.59   -4.33  CaSO4
	Gypsum           -0.00     -4.59   -4.59  CaSO4:2H2O
	H2(g)           -11.50    -14.61   -3.12  H2
	H2O(g)           -1.28     -0.00    1.28  H2O
	H2S(g)          -21.57    -29.54   -7.97  H2S
	O2(g)           -57.38    -60.33   -2.95  O2
	Sulfur          -15.96    -11.28    4.68  S


Reaction step 11.

Using solution 1.	Pure water
Using pure phase assemblage 1.	
Using temperature 1.	

-------------------------------Phase assemblage--------------------------------

                                                      Moles in assemblage
Phase               SI  log IAP  log K(T, P)   Initial       Final       Delta

Anhydrite        -0.25    -4.59     -4.34    1.000e+00           0  -1.000e+00
Gypsum            0.00    -4.59     -4.59    1.000e+00   1.985e+00   9.852e-01

-----------------------------Solution composition------------------------------

	Elements           Molality       Moles

	Ca                1.537e-02   1.482e-02
	S                 1.537e-02   1.482e-02

----------------------------Description of solution----------------------------

                                       pH  =   6.934      Charge balance
                                       pe  =  -1.225      Adjusted to redox equilibrium
       Specific Conductance (uS/cm, 35 oC) = 2670
                          Density (g/cm3)  =   0.99608
                        Activity of water  =   1.000
                           Ionic strength  =   4.197e-02
                       Mass of water (kg)  =   9.645e-01
                 Total alkalinity (eq/kg)  =   2.289e-10
                    Total carbon (mol/kg)  =   0.000e+00
                       Total CO2 (mol/kg)  =   0.000e+00
                      Temperature (deg C)  =  35.00
                  Electrical balance (eq)  =  -2.208e-10
 Percent error, 100*(Cat-|An|)/(Cat+|An|)  =  -0.00
                               Iterations  =  17
                                  Total H  = 1.070717e+02
                                  Total O  = 5.359517e+01

----------------------------Distribution of species----------------------------

                                               Log       Log       Log    mole V
   Species          Molality    Activity  Molality  Activity     Gamma   cm3/mol

   OH-             2.182e-07   1.790e-07    -6.661    -6.747    -0.086     -3.51
   H+              1.355e-07   1.163e-07    -6.868    -6.934    -0.066      0.00
   H2O             5.551e+01   9.996e-01     1.744    -0.000     0.000     18.12
Ca            1.537e-02
   Ca+2            1.049e-02   5.126e-03    -1.979    -2.290    -0.311    -17.24
   CaSO4           4.879e-03   4.927e-03    -2.312    -2.307     0.004      7.83
   CaOH+           8.824e-09   7.310e-09    -8.054    -8.136    -0.082     (0)  
   CaHSO4+         5.305e-09   4.395e-09    -8.275    -8.357    -0.082     (0)  
H(0)          4.856e-15
   H2              2.428e-15   2.451e-15   -14.615   -14.611     0.004     28.60
O(0)          0.000e+00
   O2              0.000e+00   0.000e+00   -60.041   -60.037     0.004     31.10
S(-2)         4.076e-23
   HS-             2.502e-23   2.052e-23   -22.602   -22.688    -0.086     21.12
   H2S             1.574e-23   1.590e-23   -22.803   -22.799     0.004     37.20
   S-2             8.595e-29   4.133e-29   -28.066   -28.384    -0.318     (0)  
S(6)          1.537e-02
   SO4-2           1.049e-02   5.026e-03    -1.979    -2.299    -0.320     16.32
   CaSO4           4.879e-03   4.927e-03    -2.312    -2.307     0.004      7.83
   HSO4-           8.607e-08   7.131e-08    -7.065    -7.147    -0.082     35.88
   CaHSO4+         5.305e-09   4.395e-09    -8.275    -8.357    -0.082     (0)  

------------------------------Saturation indices-------------------------------

	Phase               SI   log IAP   log K(308 K,   1 atm)

	Anhydrite        -0.25     -4.59   -4.34  CaSO4
	Gypsum            0.00     -4.59   -4.59  CaSO4:2H2O
	H2(g)           -11.49    -14.61   -3.12  H2
	H2O(g)           -1.26     -0.00    1.26  H2O
	H2S(g)          -21.65    -29.62   -7.97  H2S
	O2(g)           -57.08    -60.04   -2.96  O2
	Sulfur          -16.04    -11.38    4.66  S


Reaction step 12.

Using solution 1.	Pure water
Using pure phase assemblage 1.	
Using temperature 1.	

-------------------------------Phase assemblage--------------------------------

                                                      Moles in assemblage
Phase               SI  log IAP  log K(T, P)   Initial       Final       Delta

Anhydrite        -0.23    -4.59     -4.36    1.000e+00           0  -1.000e+00
Gypsum           -0.00    -4.59     -4.59    1.000e+00   1.985e+00   9.852e-01

-----------------------------Solution composition------------------------------

	Elements           Molality       Moles

	Ca                1.538e-02   1.484e-02
	S                 1.538e-02   1.484e-02

----------------------------Description of solution----------------------------

                                       pH  =   6.922      Charge balance
                                       pe  =  -1.212      Adjusted to redox equilibrium
       Specific Conductance (uS/cm, 36 oC) = 2720
                          Density (g/cm3)  =   0.99573
                        Activity of water  =   1.000
                           Ionic strength  =   4.194e-02
                       Mass of water (kg)  =   9.645e-01
                 Total alkalinity (eq/kg)  =   2.289e-10
                    Total carbon (mol/kg)  =   0.000e+00
                       Total CO2 (mol/kg)  =   0.000e+00
                      Temperature (deg C)  =  36.00
                  Electrical balance (eq)  =  -2.208e-10
 Percent error, 100*(Cat-|An|)/(Cat+|An|)  =  -0.00
                               Iterations  =  17
                                  Total H  = 1.070718e+02
                                  Total O  = 5.359524e+01

----------------------------Distribution of species----------------------------

                                               Log       Log       Log    mole V
   Species          Molality    Activity  Molality  Activity     Gamma   cm3/mol

   OH-             2.273e-07   1.864e-07    -6.643    -6.730    -0.086     -3.49
   H+              1.395e-07   1.197e-07    -6.856    -6.922    -0.066      0.00
   H2O             5.551e+01   9.996e-01     1.744    -0.000     0.000     18.13
Ca            1.538e-02
   Ca+2            1.049e-02   5.118e-03    -1.979    -2.291    -0.312    -17.20
   CaSO4           4.897e-03   4.945e-03    -2.310    -2.306     0.004      7.86
   CaOH+           8.561e-09   7.090e-09    -8.067    -8.149    -0.082     (0)  
   CaHSO4+         5.574e-09   4.616e-09    -8.254    -8.336    -0.082     (0)  
H(0)          4.809e-15
   H2              2.404e-15   2.428e-15   -14.619   -14.615     0.004     28.60
O(0)          0.000e+00
   O2              0.000e+00   0.000e+00   -59.731   -59.727     0.004     31.16
S(-2)         3.049e-23
   HS-             1.868e-23   1.532e-23   -22.729   -22.815    -0.086     21.14
   H2S             1.181e-23   1.192e-23   -22.928   -22.924     0.004     37.20
   S-2             6.654e-29   3.196e-29   -28.177   -28.495    -0.318     (0)  
S(6)          1.538e-02
   SO4-2           1.049e-02   5.018e-03    -1.979    -2.300    -0.320     16.37
   CaSO4           4.897e-03   4.945e-03    -2.310    -2.306     0.004      7.86
   HSO4-           9.058e-08   7.502e-08    -7.043    -7.125    -0.082     35.93
   CaHSO4+         5.574e-09   4.616e-09    -8.254    -8.336    -0.082     (0)  

------------------------------Saturation indices-------------------------------

	Phase               SI   log IAP   log K(309 K,   1 atm)

	Anhydrite        -0.23     -4.59   -4.36  CaSO4
	Gypsum           -0.00     -4.59   -4.59  CaSO4:2H2O
	H2(g)           -11.49    -14.61   -3.12  H2
	H2O(g)           -1.23     -0.00    1.23  H2O
	H2S(g)          -21.77    -29.74   -7.97  H2S
	O2(g)           -56.76    -59.73   -2.96  O2
	Sulfur          -16.14    -11.50    4.63  S


Reaction step 13.

Using solution 1.	Pure water
Using pure phase assemblage 1.	
Using temperature 1.	

-------------------------------Phase assemblage--------------------------------

                                                      Moles in assemblage
Phase               SI  log IAP  log K(T, P)   Initial       Final       Delta

Anhydrite        -0.22    -4.59     -4.37    1.000e+00           0  -1.000e+00
Gypsum            0.00    -4.59     -4.59    1.000e+00   1.985e+00   9.852e-01

-----------------------------Solution composition------------------------------

	Elements           Molality       Moles

	Ca                1.539e-02   1.485e-02
	S                 1.539e-02   1.485e-02

----------------------------Description of solution----------------------------

                                       pH  =   6.909      Charge balance
                                       pe  =  -1.202      Adjusted to redox equilibrium
       Specific Conductance (uS/cm, 37 oC) = 2771
                          Density (g/cm3)  =   0.99538
                        Activity of water  =   1.000
                           Ionic strength  =   4.191e-02
                       Mass of water (kg)  =   9.645e-01
                 Total alkalinity (eq/kg)  =   2.289e-10
                    Total carbon (mol/kg)  =   0.000e+00
                       Total CO2 (mol/kg)  =   0.000e+00
                      Temperature (deg C)  =  37.00
                  Electrical balance (eq)  =  -2.208e-10
 Percent error, 100*(Cat-|An|)/(Cat+|An|)  =  -0.00
                               Iterations  =  17
                                  Total H  = 1.070718e+02
                                  Total O  = 5.359529e+01

----------------------------Distribution of species----------------------------

                                               Log       Log       Log    mole V
   Species          Molality    Activity  Molality  Activity     Gamma   cm3/mol

   OH-             2.366e-07   1.940e-07    -6.626    -6.712    -0.086     -3.47
   H+              1.435e-07   1.232e-07    -6.843    -6.909    -0.066      0.00
   H2O             5.551e+01   9.996e-01     1.744    -0.000     0.000     18.14
Ca            1.539e-02
   Ca+2            1.048e-02   5.109e-03    -1.980    -2.292    -0.312    -17.17
   CaSO4           4.914e-03   4.961e-03    -2.309    -2.304     0.004      7.88
   CaOH+           8.308e-09   6.879e-09    -8.080    -8.163    -0.082     (0)  
   CaHSO4+         5.853e-09   4.846e-09    -8.233    -8.315    -0.082     (0)  
H(0)          4.815e-15
   H2              2.407e-15   2.431e-15   -14.618   -14.614     0.004     28.60
O(0)          0.000e+00
   O2              0.000e+00   0.000e+00   -59.433   -59.429     0.004     31.22
S(-2)         2.387e-23
   HS-             1.460e-23   1.197e-23   -22.836   -22.922    -0.086     21.17
   H2S             9.268e-24   9.358e-24   -23.033   -23.029     0.004     37.20
   S-2             5.389e-29   2.586e-29   -28.268   -28.587    -0.319     (0)  
S(6)          1.539e-02
   SO4-2           1.048e-02   5.009e-03    -1.980    -2.300    -0.321     16.41
   CaSO4           4.914e-03   4.961e-03    -2.309    -2.304     0.004      7.88
   HSO4-           9.530e-08   7.890e-08    -7.021    -7.103    -0.082     35.97
   CaHSO4+         5.853e-09   4.846e-09    -8.233    -8.315    -0.082     (0)  

------------------------------Saturation indices-------------------------------

	Phase               SI   log IAP   log K(310 K,   1 atm)

	Anhydrite        -0.22     -4.59   -4.37  CaSO4
	Gypsum            0.00     -4.59   -4.59  CaSO4:2H2O
	H2(g)           -11.49    -14.61   -3.12  H2
	H2O(g)           -1.21     -0.00    1.21  H2O
	H2S(g)          -21.86    -29.83   -7.97  H2S
	O2(g)           -56.46    -59.43   -2.97  O2
	Sulfur          -16.23    -11.61    4.61  S


Reaction step 14.

Using solution 1.	Pure water
Using pure phase assemblage 1.	
Using temperature 1.	

-------------------------------Phase assemblage--------------------------------

                                                      Moles in assemblage
Phase               SI  log IAP  log K(T, P)   Initial       Final       Delta

Anhydrite        -0.21    -4.59     -4.38    1.000e+00           0  -1.000e+00
Gypsum            0.00    -4.59     -4.59    1.000e+00   1.985e+00   9.851e-01

-----------------------------Solution composition------------------------------

	Elements           Molality       Moles

	Ca                1.540e-02   1.485e-02
	S                 1.540e-02   1.485e-02

----------------------------Description of solution----------------------------

                                       pH  =   6.897      Charge balance
                                       pe  =  -1.193      Adjusted to redox equilibrium
       Specific Conductance (uS/cm, 38 oC) = 2822
                          Density (g/cm3)  =   0.99501
                        Activity of water  =   1.000
                           Ionic strength  =   4.188e-02
                       Mass of water (kg)  =   9.645e-01
                 Total alkalinity (eq/kg)  =   2.289e-10
                    Total carbon (mol/kg)  =   0.000e+00
                       Total CO2 (mol/kg)  =   0.000e+00
                      Temperature (deg C)  =  38.00
                  Electrical balance (eq)  =  -2.098e-10
 Percent error, 100*(Cat-|An|)/(Cat+|An|)  =  -0.00
                               Iterations  =  16
                                  Total H  = 1.070718e+02
                                  Total O  = 5.359533e+01

----------------------------Distribution of species----------------------------

                                               Log       Log       Log    mole V
   Species          Molality    Activity  Molality  Activity     Gamma   cm3/mol

   OH-             2.462e-07   2.018e-07    -6.609    -6.695    -0.086     -3.46
   H+              1.477e-07   1.267e-07    -6.831    -6.897    -0.066      0.00
   H2O             5.551e+01   9.996e-01     1.744    -0.000     0.000     18.14
Ca            1.540e-02
   Ca+2            1.047e-02   5.099e-03    -1.980    -2.293    -0.312    -17.13
   CaSO4           4.929e-03   4.977e-03    -2.307    -2.303     0.004      7.91
   CaOH+           8.064e-09   6.675e-09    -8.093    -8.176    -0.082     (0)  
   CaHSO4+         6.144e-09   5.085e-09    -8.212    -8.294    -0.082     (0)  
H(0)          4.841e-15
   H2              2.421e-15   2.444e-15   -14.616   -14.612     0.004     28.59
O(0)          0.000e+00
   O2              0.000e+00   0.000e+00   -59.141   -59.136     0.004     31.28
S(-2)         1.902e-23
   HS-             1.162e-23   9.520e-24   -22.935   -23.021    -0.086     21.19
   H2S             7.408e-24   7.480e-24   -23.130   -23.126     0.004     37.21
   S-2             4.443e-29   2.130e-29   -28.352   -28.672    -0.319     (0)  
S(6)          1.540e-02
   SO4-2           1.047e-02   4.999e-03    -1.980    -2.301    -0.321     16.45
   CaSO4           4.929e-03   4.977e-03    -2.307    -2.303     0.004      7.91
   HSO4-           1.002e-07   8.296e-08    -6.999    -7.081    -0.082     36.01
   CaHSO4+         6.144e-09   5.085e-09    -8.212    -8.294    -0.082     (0)  

------------------------------Saturation indices-------------------------------

	Phase               SI   log IAP   log K(311 K,   1 atm)

	Anhydrite        -0.21     -4.59   -4.38  CaSO4
	Gypsum            0.00     -4.59   -4.59  CaSO4:2H2O
	H2(g)           -11.49    -14.61   -3.13  H2
	H2O(g)           -1.18     -0.00    1.18  H2O
	H2S(g)          -21.95    -29.92   -7.97  H2S
	O2(g)           -56.16    -59.14   -2.97  O2
	Sulfur          -16.31    -11.72    4.59  S


Reaction step 15.

Using solution 1.	Pure water
Using pure phase assemblage 1.	
Using temperature 1.	

-------------------------------Phase assemblage--------------------------------

                                                      Moles in assemblage
Phase               SI  log IAP  log K(T, P)   Initial       Final       Delta

Anhydrite        -0.20    -4.60     -4.39    1.000e+00           0  -1.000e+00
Gypsum            0.00    -4.60     -4.60    1.000e+00   1.985e+00   9.851e-01

-----------------------------Solution composition------------------------------

	Elements           Molality       Moles

	Ca                1.540e-02   1.486e-02
	S                 1.540e-02   1.486e-02

----------------------------Description of solution----------------------------

                                       pH  =   6.885      Charge balance
                                       pe  =  -1.188      Adjusted to redox equilibrium
       Specific Conductance (uS/cm, 39 oC) = 2872
                          Density (g/cm3)  =   0.99464
                        Activity of water  =   1.000
                           Ionic strength  =   4.184e-02
                       Mass of water (kg)  =   9.645e-01
                 Total alkalinity (eq/kg)  =   2.289e-10
                    Total carbon (mol/kg)  =   0.000e+00
                       Total CO2 (mol/kg)  =   0.000e+00
                      Temperature (deg C)  =  39.00
                  Electrical balance (eq)  =  -2.113e-10
 Percent error, 100*(Cat-|An|)/(Cat+|An|)  =  -0.00
                               Iterations  =  16
                                  Total H  = 1.070719e+02
                                  Total O  = 5.359535e+01

----------------------------Distribution of species----------------------------

                                               Log       Log       Log    mole V
   Species          Molality    Activity  Molality  Activity     Gamma   cm3/mol

   OH-             2.561e-07   2.098e-07    -6.592    -6.678    -0.087     -3.44
   H+              1.519e-07   1.303e-07    -6.819    -6.885    -0.067      0.00
   H2O             5.551e+01   9.996e-01     1.744    -0.000     0.000     18.15
Ca            1.540e-02
   Ca+2            1.046e-02   5.089e-03    -1.981    -2.293    -0.313    -17.10
   CaSO4           4.943e-03   4.991e-03    -2.306    -2.302     0.004      7.94
   CaOH+           7.829e-09   6.478e-09    -8.106    -8.189    -0.082     (0)  
   CaHSO4+         6.447e-09   5.335e-09    -8.191    -8.273    -0.082     (0)  
H(0)          4.943e-15
   H2              2.472e-15   2.496e-15   -14.607   -14.603     0.004     28.59
O(0)          0.000e+00
   O2              0.000e+00   0.000e+00   -58.863   -58.859     0.004     31.34
S(-2)         1.615e-23
   HS-             9.845e-24   8.067e-24   -23.007   -23.093    -0.087     21.21
   H2S             6.309e-24   6.370e-24   -23.200   -23.196     0.004     37.21
   S-2             3.902e-29   1.869e-29   -28.409   -28.728    -0.320     (0)  
S(6)          1.540e-02
   SO4-2           1.046e-02   4.989e-03    -1.981    -2.302    -0.321     16.48
   CaSO4           4.943e-03   4.991e-03    -2.306    -2.302     0.004      7.94
   HSO4-           1.054e-07   8.720e-08    -6.977    -7.059    -0.082     36.05
   CaHSO4+         6.447e-09   5.335e-09    -8.191    -8.273    -0.082     (0)  

------------------------------Saturation indices-------------------------------

	Phase               SI   log IAP   log K(312 K,   1 atm)

	Anhydrite        -0.20     -4.60   -4.39  CaSO4
	Gypsum            0.00     -4.60   -4.60  CaSO4:2H2O
	H2(g)           -11.48    -14.60   -3.13  H2
	H2O(g)           -1.16     -0.00    1.16  H2O
	H2S(g)          -22.01    -29.98   -7.96  H2S
	O2(g)           -55.88    -58.86   -2.98  O2
	Sulfur          -16.37    -11.80    4.57  S


Reaction step 16.

Using solution 1.	Pure water
Using pure phase assemblage 1.	
Using temperature 1.	

-------------------------------Phase assemblage--------------------------------

                                                      Moles in assemblage
Phase               SI  log IAP  log K(T, P)   Initial       Final       Delta

Anhydrite        -0.19    -4.60     -4.41    1.000e+00           0  -1.000e+00
Gypsum           -0.00    -4.60     -4.60    1.000e+00   1.985e+00   9.851e-01

-----------------------------Solution composition------------------------------

	Elements           Molality       Moles

	Ca                1.540e-02   1.486e-02
	S                 1.540e-02   1.486e-02

----------------------------Description of solution----------------------------

                                       pH  =   6.873      Charge balance
                                       pe  =  -1.171      Adjusted to redox equilibrium
       Specific Conductance (uS/cm, 40 oC) = 2923
                          Density (g/cm3)  =   0.99426
                        Activity of water  =   1.000
                           Ionic strength  =   4.179e-02
                       Mass of water (kg)  =   9.645e-01
                 Total alkalinity (eq/kg)  =   2.289e-10
                    Total carbon (mol/kg)  =   0.000e+00
                       Total CO2 (mol/kg)  =   0.000e+00
                      Temperature (deg C)  =  40.00
                  Electrical balance (eq)  =  -2.149e-10
 Percent error, 100*(Cat-|An|)/(Cat+|An|)  =  -0.00
                               Iterations  =  18
                                  Total H  = 1.070719e+02
                                  Total O  = 5.359535e+01

----------------------------Distribution of species----------------------------

                                               Log       Log       Log    mole V
   Species          Molality    Activity  Molality  Activity     Gamma   cm3/mol

   OH-             2.663e-07   2.181e-07    -6.575    -6.661    -0.087     -3.43
   H+              1.561e-07   1.339e-07    -6.806    -6.873    -0.067      0.00
   H2O             5.551e+01   9.996e-01     1.744    -0.000     0.000     18.16
Ca            1.540e-02
   Ca+2            1.045e-02   5.078e-03    -1.981    -2.294    -0.313    -17.07
   CaSO4           4.956e-03   5.004e-03    -2.305    -2.301     0.004      7.96
   CaOH+           7.602e-09   6.288e-09    -8.119    -8.201    -0.082     (0)  
   CaHSO4+         6.762e-09   5.594e-09    -8.170    -8.252    -0.082     (0)  
H(0)          4.805e-15
   H2              2.402e-15   2.425e-15   -14.619   -14.615     0.004     28.59
O(0)          0.000e+00
   O2              0.000e+00   0.000e+00   -58.545   -58.541     0.004     31.40
S(-2)         1.127e-23
   HS-             6.857e-24   5.617e-24   -23.164   -23.251    -0.087     21.23
   H2S             4.416e-24   4.459e-24   -23.355   -23.351     0.004     37.21
   S-2             2.816e-29   1.347e-29   -28.550   -28.871    -0.320     (0)  
S(6)          1.540e-02
   SO4-2           1.045e-02   4.978e-03    -1.981    -2.303    -0.322     16.51
   CaSO4           4.956e-03   5.004e-03    -2.305    -2.301     0.004      7.96
   HSO4-           1.108e-07   9.163e-08    -6.956    -7.038    -0.082     36.08
   CaHSO4+         6.762e-09   5.594e-09    -8.170    -8.252    -0.082     (0)  

------------------------------Saturation indices-------------------------------

	Phase               SI   log IAP   log K(313 K,   1 atm)

	Anhydrite        -0.19     -4.60   -4.41  CaSO4
	Gypsum           -0.00     -4.60   -4.60  CaSO4:2H2O
	H2(g)           -11.49    -14.62   -3.13  H2
	H2O(g)           -1.14     -0.00    1.14  H2O
	H2S(g)          -22.16    -30.12   -7.96  H2S
	O2(g)           -55.56    -58.54   -2.98  O2
	Sulfur          -16.50    -11.95    4.55  S


Reaction step 17.

Using solution 1.	Pure water
Using pure phase assemblage 1.	
Using temperature 1.	

-------------------------------Phase assemblage--------------------------------

                                                      Moles in assemblage
Phase               SI  log IAP  log K(T, P)   Initial       Final       Delta

Anhydrite        -0.18    -4.60     -4.42    1.000e+00           0  -1.000e+00
Gypsum           -0.00    -4.60     -4.60    1.000e+00   1.985e+00   9.851e-01

-----------------------------Solution composition------------------------------

	Elements           Molality       Moles

	Ca                1.540e-02   1.485e-02
	S                 1.540e-02   1.485e-02

----------------------------Description of solution----------------------------

                                       pH  =   6.861      Charge balance
                                       pe  =  -1.164      Adjusted to redox equilibrium
       Specific Conductance (uS/cm, 41 oC) = 2973
                          Density (g/cm3)  =   0.99387
                        Activity of water  =   1.000
                           Ionic strength  =   4.174e-02
                       Mass of water (kg)  =   9.645e-01
                 Total alkalinity (eq/kg)  =   2.289e-10
                    Total carbon (mol/kg)  =   0.000e+00
                       Total CO2 (mol/kg)  =   0.000e+00
                      Temperature (deg C)  =  41.00
                  Electrical balance (eq)  =  -2.161e-10
 Percent error, 100*(Cat-|An|)/(Cat+|An|)  =  -0.00
                               Iterations  =  18
                                  Total H  = 1.070719e+02
                                  Total O  = 5.359534e+01

----------------------------Distribution of species----------------------------

                                               Log       Log       Log    mole V
   Species          Molality    Activity  Molality  Activity     Gamma   cm3/mol

   OH-             2.768e-07   2.267e-07    -6.558    -6.645    -0.087     -3.42
   H+              1.605e-07   1.376e-07    -6.795    -6.861    -0.067      0.00
   H2O             5.551e+01   9.996e-01     1.744    -0.000     0.000     18.16
Ca            1.540e-02
   Ca+2            1.043e-02   5.066e-03    -1.982    -2.295    -0.314    -17.04
   CaSO4           4.967e-03   5.015e-03    -2.304    -2.300     0.004      7.99
   CaOH+           7.383e-09   6.106e-09    -8.132    -8.214    -0.083     (0)  
   CaHSO4+         7.089e-09   5.863e-09    -8.149    -8.232    -0.083     (0)  
H(0)          4.859e-15
   H2              2.429e-15   2.453e-15   -14.615   -14.610     0.004     28.59
O(0)          0.000e+00
   O2              0.000e+00   0.000e+00   -58.263   -58.259     0.004     31.46
S(-2)         9.232e-24
   HS-             5.604e-24   4.590e-24   -23.251   -23.338    -0.087     21.25
   H2S             3.628e-24   3.663e-24   -23.440   -23.436     0.004     37.22
   S-2             2.385e-29   1.140e-29   -28.623   -28.943    -0.321     (0)  
S(6)          1.540e-02
   SO4-2           1.043e-02   4.967e-03    -1.982    -2.304    -0.322     16.53
   CaSO4           4.967e-03   5.015e-03    -2.304    -2.300     0.004      7.99
   HSO4-           1.164e-07   9.625e-08    -6.934    -7.017    -0.083     36.12
   CaHSO4+         7.089e-09   5.863e-09    -8.149    -8.232    -0.083     (0)  

------------------------------Saturation indices-------------------------------

	Phase               SI   log IAP   log K(314 K,   1 atm)

	Anhydrite        -0.18     -4.60   -4.42  CaSO4
	Gypsum           -0.00     -4.60   -4.60  CaSO4:2H2O
	H2(g)           -11.48    -14.61   -3.13  H2
	H2O(g)           -1.12     -0.00    1.12  H2O
	H2S(g)          -22.24    -30.20   -7.96  H2S
	O2(g)           -55.27    -58.26   -2.99  O2
	Sulfur          -16.57    -12.04    4.53  S


Reaction step 18.

Using solution 1.	Pure water
Using pure phase assemblage 1.	
Using temperature 1.	

-------------------------------Phase assemblage--------------------------------

                                                      Moles in assemblage
Phase               SI  log IAP  log K(T, P)   Initial       Final       Delta

Anhydrite        -0.17    -4.60     -4.43    1.000e+00           0  -1.000e+00
Gypsum            0.00    -4.60     -4.60    1.000e+00   1.985e+00   9.852e-01

-----------------------------Solution composition------------------------------

	Elements           Molality       Moles

	Ca                1.540e-02   1.485e-02
	S                 1.540e-02   1.485e-02

----------------------------Description of solution----------------------------

                                       pH  =   6.850      Charge balance
                                       pe  =  -1.154      Adjusted to redox equilibrium
       Specific Conductance (uS/cm, 42 oC) = 3023
                          Density (g/cm3)  =   0.99347
                        Activity of water  =   1.000
                           Ionic strength  =   4.168e-02
                       Mass of water (kg)  =   9.645e-01
                 Total alkalinity (eq/kg)  =   2.289e-10
                    Total carbon (mol/kg)  =   0.000e+00
                       Total CO2 (mol/kg)  =   0.000e+00
                      Temperature (deg C)  =  42.00
                  Electrical balance (eq)  =  -2.148e-10
 Percent error, 100*(Cat-|An|)/(Cat+|An|)  =  -0.00
                               Iterations  =  16
                                  Total H  = 1.070718e+02
                                  Total O  = 5.359532e+01

----------------------------Distribution of species----------------------------

                                               Log       Log       Log    mole V
   Species          Molality    Activity  Molality  Activity     Gamma   cm3/mol

   OH-             2.876e-07   2.355e-07    -6.541    -6.628    -0.087     -3.41
   H+              1.649e-07   1.414e-07    -6.783    -6.850    -0.067      0.00
   H2O             5.551e+01   9.996e-01     1.744    -0.000     0.000     18.17
Ca            1.540e-02
   Ca+2            1.042e-02   5.054e-03    -1.982    -2.296    -0.314    -17.01
   CaSO4           4.977e-03   5.025e-03    -2.303    -2.299     0.004      8.01
   CaHSO4+         7.429e-09   6.142e-09    -8.129    -8.212    -0.083     (0)  
   CaOH+           7.172e-09   5.930e-09    -8.144    -8.227    -0.083     (0)  
H(0)          4.852e-15
   H2              2.426e-15   2.449e-15   -14.615   -14.611     0.004     28.59
O(0)          0.000e+00
   O2              0.000e+00   0.000e+00   -57.972   -57.968     0.004     31.51
S(-2)         7.198e-24
   HS-             4.360e-24   3.570e-24   -23.360   -23.447    -0.087     21.26
   H2S             2.838e-24   2.865e-24   -23.547   -23.543     0.004     37.22
   S-2             1.922e-29   9.176e-30   -28.716   -29.037    -0.321     (0)  
S(6)          1.540e-02
   SO4-2           1.042e-02   4.956e-03    -1.982    -2.305    -0.323     16.55
   CaSO4           4.977e-03   5.025e-03    -2.303    -2.299     0.004      8.01
   HSO4-           1.223e-07   1.011e-07    -6.913    -6.995    -0.083     36.15
   CaHSO4+         7.429e-09   6.142e-09    -8.129    -8.212    -0.083     (0)  

------------------------------Saturation indices-------------------------------

	Phase               SI   log IAP   log K(315 K,   1 atm)

	Anhydrite        -0.17     -4.60   -4.43  CaSO4
	Gypsum            0.00     -4.60   -4.60  CaSO4:2H2O
	H2(g)           -11.48    -14.61   -3.13  H2
	H2O(g)           -1.09     -0.00    1.09  H2O
	H2S(g)          -22.34    -30.30   -7.96  H2S
	O2(g)           -54.97    -57.97   -2.99  O2
	Sulfur          -16.66    -12.15    4.51  S


Reaction step 19.

Using solution 1.	Pure water
Using pure phase assemblage 1.	
Using temperature 1.	

-------------------------------Phase assemblage--------------------------------

                                                      Moles in assemblage
Phase               SI  log IAP  log K(T, P)   Initial       Final       Delta

Anhydrite        -0.16    -4.60     -4.45    1.000e+00           0  -1.000e+00
Gypsum           -0.00    -4.60     -4.60    1.000e+00   1.985e+00   9.852e-01

-----------------------------Solution composition------------------------------

	Elements           Molality       Moles

	Ca                1.539e-02   1.484e-02
	S                 1.539e-02   1.484e-02

----------------------------Description of solution----------------------------

                                       pH  =   6.838      Charge balance
                                       pe  =  -1.142      Adjusted to redox equilibrium
       Specific Conductance (uS/cm, 43 oC) = 3073
                          Density (g/cm3)  =   0.99307
                        Activity of water  =   1.000
                           Ionic strength  =   4.161e-02
                       Mass of water (kg)  =   9.645e-01
                 Total alkalinity (eq/kg)  =   2.289e-10
                    Total carbon (mol/kg)  =   0.000e+00
                       Total CO2 (mol/kg)  =   0.000e+00
                      Temperature (deg C)  =  43.00
                  Electrical balance (eq)  =  -2.158e-10
 Percent error, 100*(Cat-|An|)/(Cat+|An|)  =  -0.00
                               Iterations  =  16
                                  Total H  = 1.070718e+02
                                  Total O  = 5.359527e+01

----------------------------Distribution of species----------------------------

                                               Log       Log       Log    mole V
   Species          Molality    Activity  Molality  Activity     Gamma   cm3/mol

   OH-             2.988e-07   2.446e-07    -6.525    -6.612    -0.087     -3.41
   H+              1.694e-07   1.452e-07    -6.771    -6.838    -0.067      0.00
   H2O             5.551e+01   9.996e-01     1.744    -0.000     0.000     18.18
Ca            1.539e-02
   Ca+2            1.040e-02   5.042e-03    -1.983    -2.297    -0.315    -16.99
   CaSO4           4.986e-03   5.034e-03    -2.302    -2.298     0.004      8.04
   CaHSO4+         7.782e-09   6.432e-09    -8.109    -8.192    -0.083     (0)  
   CaOH+           6.969e-09   5.760e-09    -8.157    -8.240    -0.083     (0)  
H(0)          4.793e-15
   H2              2.396e-15   2.419e-15   -14.620   -14.616     0.004     28.59
O(0)          0.000e+00
   O2              0.000e+00   0.000e+00   -57.674   -57.670     0.004     31.57
S(-2)         5.383e-24
   HS-             3.254e-24   2.664e-24   -23.488   -23.575    -0.087     21.27
   H2S             2.129e-24   2.150e-24   -23.672   -23.668     0.004     37.22
   S-2             1.486e-29   7.087e-30   -28.828   -29.150    -0.321     (0)  
S(6)          1.539e-02
   SO4-2           1.040e-02   4.943e-03    -1.983    -2.306    -0.323     16.56
   CaSO4           4.986e-03   5.034e-03    -2.302    -2.298     0.004      8.04
   HSO4-           1.284e-07   1.061e-07    -6.891    -6.974    -0.083     36.18
   CaHSO4+         7.782e-09   6.432e-09    -8.109    -8.192    -0.083     (0)  

------------------------------Saturation indices-------------------------------

	Phase               SI   log IAP   log K(316 K,   1 atm)

	Anhydrite        -0.16     -4.60   -4.45  CaSO4
	Gypsum           -0.00     -4.60   -4.60  CaSO4:2H2O
	H2(g)           -11.49    -14.62   -3.13  H2
	H2O(g)           -1.07     -0.00    1.07  H2O
	H2S(g)          -22.46    -30.41   -7.96  H2S
	O2(g)           -54.67    -57.67   -3.00  O2
	Sulfur          -16.76    -12.27    4.49  S


Reaction step 20.

Using solution 1.	Pure water
Using pure phase assemblage 1.	
Using temperature 1.	

-------------------------------Phase assemblage--------------------------------

                                                      Moles in assemblage
Phase               SI  log IAP  log K(T, P)   Initial       Final       Delta

Anhydrite        -0.15    -4.61     -4.46    1.000e+00           0  -1.000e+00
Gypsum           -0.00    -4.61     -4.61    1.000e+00   1.985e+00   9.852e-01

-----------------------------Solution composition------------------------------

	Elements           Molality       Moles

	Ca                1.538e-02   1.483e-02
	S                 1.538e-02   1.483e-02

----------------------------Description of solution----------------------------

                                       pH  =   6.827      Charge balance
                                       pe  =  -1.133      Adjusted to redox equilibrium
       Specific Conductance (uS/cm, 44 oC) = 3122
                          Density (g/cm3)  =   0.99266
                        Activity of water  =   1.000
                           Ionic strength  =   4.154e-02
                       Mass of water (kg)  =   9.645e-01
                 Total alkalinity (eq/kg)  =   2.289e-10
                    Total carbon (mol/kg)  =   0.000e+00
                       Total CO2 (mol/kg)  =   0.000e+00
                      Temperature (deg C)  =  44.00
                  Electrical balance (eq)  =  -2.167e-10
 Percent error, 100*(Cat-|An|)/(Cat+|An|)  =  -0.00
                               Iterations  =  16
                                  Total H  = 1.070718e+02
                                  Total O  = 5.359521e+01

----------------------------Distribution of species----------------------------

                                               Log       Log       Log    mole V
   Species          Molality    Activity  Molality  Activity     Gamma   cm3/mol

   OH-             3.103e-07   2.539e-07    -6.508    -6.595    -0.087     -3.40
   H+              1.739e-07   1.490e-07    -6.760    -6.827    -0.067      0.00
   H2O             5.551e+01   9.996e-01     1.744    -0.000     0.000     18.19
Ca            1.538e-02
   Ca+2            1.039e-02   5.028e-03    -1.984    -2.299    -0.315    -16.96
   CaSO4           4.993e-03   5.041e-03    -2.302    -2.297     0.004      8.06
   CaHSO4+         8.149e-09   6.733e-09    -8.089    -8.172    -0.083     (0)  
   CaOH+           6.773e-09   5.597e-09    -8.169    -8.252    -0.083     (0)  
H(0)          4.816e-15
   H2              2.408e-15   2.431e-15   -14.618   -14.614     0.004     28.59
O(0)          0.000e+00
   O2              0.000e+00   0.000e+00   -57.392   -57.388     0.004     31.62
S(-2)         4.314e-24
   HS-             2.602e-24   2.129e-24   -23.585   -23.672    -0.087     21.29
   H2S             1.712e-24   1.729e-24   -23.766   -23.762     0.004     37.22
   S-2             1.231e-29   5.865e-30   -28.910   -29.232    -0.322     (0)  
S(6)          1.538e-02
   SO4-2           1.039e-02   4.931e-03    -1.984    -2.307    -0.324     16.57
   CaSO4           4.993e-03   5.041e-03    -2.302    -2.297     0.004      8.06
   HSO4-           1.348e-07   1.114e-07    -6.870    -6.953    -0.083     36.21
   CaHSO4+         8.149e-09   6.733e-09    -8.089    -8.172    -0.083     (0)  

------------------------------Saturation indices-------------------------------

[...]

------------------------------Saturation indices-------------------------------

	Phase               SI   log IAP   log K(343 K,   1 atm)

	Anhydrite         0.00     -4.82   -4.82  CaSO4
	Gypsum           -0.13     -4.82   -4.69  CaSO4:2H2O
	H2(g)           -11.51    -14.64   -3.14  H2
	H2O(g)           -0.52     -0.00    0.51  H2O
	H2S(g)          -25.04    -32.97   -7.93  H2S
	O2(g)           -47.38    -50.47   -3.09  O2
	Sulfur          -19.04    -15.07    3.97  S


Reaction step 47.

Using solution 1.	Pure water
Using pure phase assemblage 1.	
Using temperature 1.	

-------------------------------Phase assemblage--------------------------------

                                                      Moles in assemblage
Phase               SI  log IAP  log K(T, P)   Initial       Final       Delta

Anhydrite        -0.00    -4.83     -4.83    1.000e+00   1.988e+00   9.885e-01
Gypsum           -0.14    -4.83     -4.70    1.000e+00           0  -1.000e+00

-----------------------------Solution composition------------------------------

	Elements           Molality       Moles

	Ca                1.114e-02   1.154e-02
	S                 1.114e-02   1.154e-02

----------------------------Description of solution----------------------------

                                       pH  =   6.554      Charge balance
                                       pe  =  -0.893      Adjusted to redox equilibrium
       Specific Conductance (uS/cm, 71 oC) = 3564
                          Density (g/cm3)  =   0.97865
                        Activity of water  =   1.000
                           Ionic strength  =   3.060e-02
                       Mass of water (kg)  =   1.036e+00
                 Total alkalinity (eq/kg)  =   2.131e-10
                    Total carbon (mol/kg)  =   0.000e+00
                       Total CO2 (mol/kg)  =   0.000e+00
                      Temperature (deg C)  =  71.00
                  Electrical balance (eq)  =  -2.214e-10
 Percent error, 100*(Cat-|An|)/(Cat+|An|)  =  -0.00
                               Iterations  =  15
                                  Total H  = 1.150124e+02
                                  Total O  = 5.755238e+01

----------------------------Distribution of species----------------------------

                                               Log       Log       Log    mole V
   Species          Molality    Activity  Molality  Activity     Gamma   cm3/mol

   OH-             7.318e-07   6.071e-07    -6.136    -6.217    -0.081     -3.99
   H+              3.235e-07   2.792e-07    -6.490    -6.554    -0.064      0.00
   H2O             5.551e+01   9.997e-01     1.744    -0.000     0.000     18.44
Ca            1.114e-02
   Ca+2            7.649e-03   3.857e-03    -2.116    -2.414    -0.297    -16.96
   CaSO4           3.491e-03   3.516e-03    -2.457    -2.454     0.003      8.54
   CaHSO4+         1.821e-08   1.521e-08    -7.740    -7.818    -0.078     (0)  
   CaOH+           2.744e-09   2.292e-09    -8.562    -8.640    -0.078     (0)  
H(0)          4.494e-15
   H2              2.247e-15   2.263e-15   -14.648   -14.645     0.003     28.58
O(0)          0.000e+00
   O2              0.000e+00   0.000e+00   -50.232   -50.229     0.003     32.83
S(-2)         6.941e-27
   HS-             3.746e-27   3.108e-27   -26.426   -26.508    -0.081     21.12
   H2S             3.195e-27   3.218e-27   -26.496   -26.492     0.003     37.27
   S-2             4.134e-32   2.061e-32   -31.384   -31.686    -0.302     (0)  
S(6)          1.114e-02
   SO4-2           7.649e-03   3.802e-03    -2.116    -2.420    -0.304     15.23
   CaSO4           3.491e-03   3.516e-03    -2.457    -2.454     0.003      8.54
   HSO4-           3.927e-07   3.280e-07    -6.406    -6.484    -0.078     36.47
   CaHSO4+         1.821e-08   1.521e-08    -7.740    -7.818    -0.078     (0)  

------------------------------Saturation indices-------------------------------

	Phase               SI   log IAP   log K(344 K,   1 atm)

	Anhydrite        -0.00     -4.83   -4.83  CaSO4
	Gypsum           -0.14     -4.83   -4.70  CaSO4:2H2O
	H2(g)           -11.51    -14.65   -3.14  H2
	H2O(g)           -0.50     -0.00    0.50  H2O
	H2S(g)          -25.13    -33.06   -7.93  H2S
	O2(g)           -47.14    -50.23   -3.09  O2
	Sulfur          -19.12    -15.17    3.95  S


Reaction step 48.

Using solution 1.	Pure water
Using pure phase assemblage 1.	
Using temperature 1.	

-------------------------------Phase assemblage--------------------------------

                                                      Moles in assemblage
Phase               SI  log IAP  log K(T, P)   Initial       Final       Delta

Anhydrite         0.00    -4.85     -4.85    1.000e+00   1.989e+00   9.887e-01
Gypsum           -0.15    -4.85     -4.70    1.000e+00           0  -1.000e+00

-----------------------------Solution composition------------------------------

	Elements           Molality       Moles

	Ca                1.089e-02   1.128e-02
	S                 1.089e-02   1.128e-02

----------------------------Description of solution----------------------------

                                       pH  =   6.545      Charge balance
                                       pe  =  -0.886      Adjusted to redox equilibrium
       Specific Conductance (uS/cm, 72 oC) = 3545
                          Density (g/cm3)  =   0.97804
                        Activity of water  =   1.000
                           Ionic strength  =   2.997e-02
                       Mass of water (kg)  =   1.036e+00
                 Total alkalinity (eq/kg)  =   2.131e-10
                    Total carbon (mol/kg)  =   0.000e+00
                       Total CO2 (mol/kg)  =   0.000e+00
                      Temperature (deg C)  =  72.00
                  Electrical balance (eq)  =  -2.213e-10
 Percent error, 100*(Cat-|An|)/(Cat+|An|)  =  -0.00
                               Iterations  =  15
                                  Total H  = 1.150124e+02
                                  Total O  = 5.755135e+01

----------------------------Distribution of species----------------------------

                                               Log       Log       Log    mole V
   Species          Molality    Activity  Molality  Activity     Gamma   cm3/mol

   OH-             7.512e-07   6.240e-07    -6.124    -6.205    -0.081     -4.04
   H+              3.301e-07   2.851e-07    -6.481    -6.545    -0.064      0.00
   H2O             5.551e+01   9.997e-01     1.744    -0.000     0.000     18.45
Ca            1.089e-02
   Ca+2            7.493e-03   3.793e-03    -2.125    -2.421    -0.296    -16.98
   CaSO4           3.397e-03   3.420e-03    -2.469    -2.466     0.003      8.55
   CaHSO4+         1.847e-08   1.545e-08    -7.733    -7.811    -0.078     (0)  
   CaOH+           2.640e-09   2.208e-09    -8.578    -8.656    -0.078     (0)  
H(0)          4.502e-15
   H2              2.251e-15   2.267e-15   -14.648   -14.645     0.003     28.58
O(0)          0.000e+00
   O2              0.000e+00   0.000e+00   -49.991   -49.988     0.003     32.87
S(-2)         5.631e-27
   HS-             3.020e-27   2.508e-27   -26.520   -26.601    -0.081     21.10
   H2S             2.611e-27   2.629e-27   -26.583   -26.580     0.003     37.27
   S-2             3.426e-32   1.715e-32   -31.465   -31.766    -0.301     (0)  
S(6)          1.089e-02
   SO4-2           7.493e-03   3.740e-03    -2.125    -2.427    -0.302     15.13
   CaSO4           3.397e-03   3.420e-03    -2.469    -2.466     0.003      8.55
   HSO4-           4.051e-07   3.388e-07    -6.392    -6.470    -0.078     36.46
   CaHSO4+         1.847e-08   1.545e-08    -7.733    -7.811    -0.078     (0)  

------------------------------Saturation indices-------------------------------

	Phase               SI   log IAP   log K(345 K,   1 atm)

	Anhydrite         0.00     -4.85   -4.85  CaSO4
	Gypsum           -0.15     -4.85   -4.70  CaSO4:2H2O
	H2(g)           -11.51    -14.64   -3.13  H2
	H2O(g)           -0.48     -0.00    0.48  H2O
	H2S(g)          -25.21    -33.15   -7.93  H2S
	O2(g)           -46.90    -49.99   -3.09  O2
	Sulfur          -19.19    -15.26    3.93  S


Reaction step 49.

Using solution 1.	Pure water
Using pure phase assemblage 1.	
Using temperature 1.	

-------------------------------Phase assemblage--------------------------------

                                                      Moles in assemblage
Phase               SI  log IAP  log K(T, P)   Initial       Final       Delta

Anhydrite         0.00    -4.86     -4.86    1.000e+00   1.989e+00   9.890e-01
Gypsum           -0.16    -4.86     -4.71    1.000e+00           0  -1.000e+00

-----------------------------Solution composition------------------------------

	Elements           Molality       Moles

	Ca                1.065e-02   1.103e-02
	S                 1.065e-02   1.103e-02

----------------------------Description of solution----------------------------

                                       pH  =   6.536      Charge balance
                                       pe  =  -0.950      Adjusted to redox equilibrium
       Specific Conductance (uS/cm, 73 oC) = 3525
                          Density (g/cm3)  =   0.97742
                        Activity of water  =   1.000
                           Ionic strength  =   2.936e-02
                       Mass of water (kg)  =   1.036e+00
                 Total alkalinity (eq/kg)  =   2.131e-10
                    Total carbon (mol/kg)  =   0.000e+00
                       Total CO2 (mol/kg)  =   0.000e+00
                      Temperature (deg C)  =  73.00
                  Electrical balance (eq)  =  -2.208e-10
 Percent error, 100*(Cat-|An|)/(Cat+|An|)  =  -0.00
                               Iterations  =  19
                                  Total H  = 1.150124e+02
                                  Total O  = 5.755033e+01

----------------------------Distribution of species----------------------------

                                               Log       Log       Log    mole V
   Species          Molality    Activity  Molality  Activity     Gamma   cm3/mol

   OH-             7.710e-07   6.411e-07    -6.113    -6.193    -0.080     -4.09
   H+              3.367e-07   2.910e-07    -6.473    -6.536    -0.063      0.00
   H2O             5.551e+01   9.997e-01     1.744    -0.000     0.000     18.46
Ca            1.065e-02
   Ca+2            7.341e-03   3.730e-03    -2.134    -2.428    -0.294    -17.01
   CaSO4           3.304e-03   3.327e-03    -2.481    -2.478     0.003      8.57
   CaHSO4+         1.874e-08   1.569e-08    -7.727    -7.804    -0.077     (0)  
   CaOH+           2.541e-09   2.127e-09    -8.595    -8.672    -0.077     (0)  
H(0)          6.272e-15
   H2              3.136e-15   3.157e-15   -14.504   -14.501     0.003     28.58
O(0)          0.000e+00
   O2              0.000e+00   0.000e+00   -50.039   -50.036     0.003     32.91
S(-2)         1.711e-26
   HS-             9.116e-27   7.580e-27   -26.040   -26.120    -0.080     21.08
   H2S             7.990e-27   8.044e-27   -26.097   -26.095     0.003     37.28
   S-2             1.063e-31   5.342e-32   -30.973   -31.272    -0.299     (0)  
S(6)          1.065e-02
   SO4-2           7.340e-03   3.678e-03    -2.134    -2.434    -0.300     15.02
   CaSO4           3.304e-03   3.327e-03    -2.481    -2.478     0.003      8.57
   HSO4-           4.179e-07   3.498e-07    -6.379    -6.456    -0.077     36.45
   CaHSO4+         1.874e-08   1.569e-08    -7.727    -7.804    -0.077     (0)  

------------------------------Saturation indices-------------------------------

	Phase               SI   log IAP   log K(346 K,   1 atm)

	Anhydrite         0.00     -4.86   -4.86  CaSO4
	Gypsum           -0.16     -4.86   -4.71  CaSO4:2H2O
	H2(g)           -11.37    -14.50   -3.13  H2
	H2O(g)           -0.46     -0.00    0.46  H2O
	H2S(g)          -24.73    -32.66   -7.93  H2S
	O2(g)           -46.94    -50.04   -3.09  O2
	Sulfur          -18.84    -14.92    3.92  S


Reaction step 50.

Using solution 1.	Pure water
Using pure phase assemblage 1.	
Using temperature 1.	

-------------------------------Phase assemblage--------------------------------

                                                      Moles in assemblage
Phase               SI  log IAP  log K(T, P)   Initial       Final       Delta

Anhydrite         0.00    -4.88     -4.88    1.000e+00   1.989e+00   9.892e-01
Gypsum           -0.17    -4.88     -4.71    1.000e+00           0  -1.000e+00

-----------------------------Solution composition------------------------------

	Elements           Molality       Moles

	Ca                1.041e-02   1.078e-02
	S                 1.041e-02   1.078e-02

----------------------------Description of solution----------------------------

                                       pH  =   6.527      Charge balance
                                       pe  =  -0.874      Adjusted to redox equilibrium
       Specific Conductance (uS/cm, 74 oC) = 3505
                          Density (g/cm3)  =   0.97680
                        Activity of water  =   1.000
                           Ionic strength  =   2.876e-02
                       Mass of water (kg)  =   1.036e+00
                 Total alkalinity (eq/kg)  =   2.131e-10
                    Total carbon (mol/kg)  =   0.000e+00
                       Total CO2 (mol/kg)  =   0.000e+00
                      Temperature (deg C)  =  74.00
                  Electrical balance (eq)  =  -2.208e-10
 Percent error, 100*(Cat-|An|)/(Cat+|An|)  =  -0.00
                               Iterations  =  19
                                  Total H  = 1.150124e+02
                                  Total O  = 5.754934e+01

----------------------------Distribution of species----------------------------

                                               Log       Log       Log    mole V
   Species          Molality    Activity  Molality  Activity     Gamma   cm3/mol

   OH-             7.911e-07   6.586e-07    -6.102    -6.181    -0.080     -4.13
   H+              3.434e-07   2.970e-07    -6.464    -6.527    -0.063      0.00
   H2O             5.551e+01   9.997e-01     1.744    -0.000     0.000     18.47
Ca            1.041e-02
   Ca+2            7.191e-03   3.668e-03    -2.143    -2.436    -0.292    -17.03
   CaSO4           3.214e-03   3.236e-03    -2.493    -2.490     0.003      8.58
   CaHSO4+         1.900e-08   1.592e-08    -7.721    -7.798    -0.077     (0)  
   CaOH+           2.445e-09   2.049e-09    -8.612    -8.688    -0.077     (0)  
H(0)          4.576e-15
   H2              2.288e-15   2.303e-15   -14.641   -14.638     0.003     28.58
O(0)          0.000e+00
   O2              0.000e+00   0.000e+00   -49.526   -49.524     0.003     32.95
S(-2)         3.914e-27
   HS-             2.073e-27   1.725e-27   -26.683   -26.763    -0.080     21.05
   H2S             1.842e-27   1.854e-27   -26.735   -26.732     0.003     37.28
   S-2             2.484e-32   1.253e-32   -31.605   -31.902    -0.297     (0)  
S(6)          1.041e-02
   SO4-2           7.191e-03   3.618e-03    -2.143    -2.442    -0.298     14.91
   CaSO4           3.214e-03   3.236e-03    -2.493    -2.490     0.003      8.58
   HSO4-           4.310e-07   3.611e-07    -6.366    -6.442    -0.077     36.44
   CaHSO4+         1.900e-08   1.592e-08    -7.721    -7.798    -0.077     (0)  

------------------------------Saturation indices-------------------------------

	Phase               SI   log IAP   log K(347 K,   1 atm)

	Anhydrite         0.00     -4.88   -4.88  CaSO4
	Gypsum           -0.17     -4.88   -4.71  CaSO4:2H2O
	H2(g)           -11.50    -14.64   -3.13  H2
	H2O(g)           -0.44     -0.00    0.44  H2O
	H2S(g)          -25.36    -33.29   -7.93  H2S
	O2(g)           -46.43    -49.52   -3.10  O2
	Sulfur          -19.33    -15.43    3.90  S


Reaction step 51.

Using solution 1.	Pure water
Using pure phase assemblage 1.	
Using temperature 1.	

-------------------------------Phase assemblage--------------------------------

                                                      Moles in assemblage
Phase               SI  log IAP  log K(T, P)   Initial       Final       Delta

Anhydrite         0.00    -4.89     -4.89    1.000e+00   1.989e+00   9.895e-01
Gypsum           -0.18    -4.89     -4.72    1.000e+00           0  -1.000e+00

-----------------------------Solution composition------------------------------

	Elements           Molality       Moles

	Ca                1.017e-02   1.054e-02
	S                 1.017e-02   1.054e-02

----------------------------Description of solution----------------------------

                                       pH  =   6.519      Charge balance
                                       pe  =  -0.765      Adjusted to redox equilibrium
       Specific Conductance (uS/cm, 75 oC) = 3484
                          Density (g/cm3)  =   0.97618
                        Activity of water  =   1.000
                           Ionic strength  =   2.818e-02
                       Mass of water (kg)  =   1.036e+00
                 Total alkalinity (eq/kg)  =   2.131e-10
                    Total carbon (mol/kg)  =   0.000e+00
                       Total CO2 (mol/kg)  =   0.000e+00
                      Temperature (deg C)  =  75.00
                  Electrical balance (eq)  =  -2.208e-10
 Percent error, 100*(Cat-|An|)/(Cat+|An|)  =  -0.00
                               Iterations  =  19
                                  Total H  = 1.150124e+02
                                  Total O  = 5.754836e+01

----------------------------Distribution of species----------------------------

                                               Log       Log       Log    mole V
   Species          Molality    Activity  Molality  Activity     Gamma   cm3/mol

   OH-             8.116e-07   6.765e-07    -6.091    -6.170    -0.079     -4.18
   H+              3.501e-07   3.030e-07    -6.456    -6.519    -0.063      0.00
   H2O             5.551e+01   9.997e-01     1.744    -0.000     0.000     18.48
Ca            1.017e-02
   Ca+2            7.044e-03   3.606e-03    -2.152    -2.443    -0.291    -17.06
   CaSO4           3.126e-03   3.146e-03    -2.505    -2.502     0.003      8.59
   CaHSO4+         1.927e-08   1.616e-08    -7.715    -7.792    -0.076     (0)  
   CaOH+           2.354e-09   1.975e-09    -8.628    -8.704    -0.076     (0)  
H(0)          2.850e-15
   H2              1.425e-15   1.434e-15   -14.846   -14.843     0.003     28.58
O(0)          0.000e+00
   O2              0.000e+00   0.000e+00   -48.878   -48.875     0.003     32.99
S(-2)         4.763e-28
   HS-             2.505e-28   2.088e-28   -27.601   -27.680    -0.079     21.03
   H2S             2.257e-28   2.272e-28   -27.646   -27.644     0.003     37.28
   S-2             3.087e-33   1.564e-33   -32.510   -32.806    -0.295     (0)  
S(6)          1.017e-02
   SO4-2           7.044e-03   3.558e-03    -2.152    -2.449    -0.297     14.79
   CaSO4           3.126e-03   3.146e-03    -2.505    -2.502     0.003      8.59
   HSO4-           4.444e-07   3.727e-07    -6.352    -6.429    -0.076     36.43
   CaHSO4+         1.927e-08   1.616e-08    -7.715    -7.792    -0.076     (0)  

------------------------------Saturation indices-------------------------------

	Phase               SI   log IAP   log K(348 K,   1 atm)

	Anhydrite         0.00     -4.89   -4.89  CaSO4
	Gypsum           -0.18     -4.89   -4.72  CaSO4:2H2O
	H2(g)           -11.71    -14.84   -3.13  H2
	H2O(g)           -0.42     -0.00    0.42  H2O
	H2S(g)          -26.27    -34.20   -7.93  H2S
	O2(g)           -45.78    -48.87   -3.10  O2
	Sulfur          -20.02    -16.14    3.88  S


------------------
End of simulation.
------------------

------------------------------------
Reading input data for simulation 2.
------------------------------------

-----------
End of run.
-----------

