   Input file: ex5
  Output file: ex5.out
Database file: ../database/phreeqc.dat

------------------
Reading data base.
------------------

	SOLUTION_MASTER_SPECIES
	SOLUTION_SPECIES
	PHASES
	EXCHANGE_MASTER_SPECIES
	EXCHANGE_SPECIES
	SURFACE_MASTER_SPECIES
	SURFACE_SPECIES
	RATES
	END
------------------------------------
Reading input data for simulation 1.
------------------------------------

	DATABASE ../database/phreeqc.dat
	knobs
		logfile
	TITLE Example 5.--Add oxygen, equilibrate with pyrite, calcite, and goethite.
	SOLUTION 1  PURE WATER
	        pH      7.0
	        temp    25.0
	EQUILIBRIUM_PHASES 1
	        Pyrite          0.0
	        Goethite        0.0
	        Calcite         0.0
	        Gypsum          0.0     0.0
	REACTION 1
	        O2      1.0
	        0.0     0.001   0.005   0.01    0.05
	SELECTED_OUTPUT
	        file   ex5.pun
	        si     CO2(g)  Gypsum
	        equilibrium_phases  pyrite goethite calcite gypsum
	END
-----
TITLE
-----

 Example 5.--Add oxygen, equilibrate with pyrite, calcite, and goethite.

-------------------------------------------
Beginning of initial solution calculations.
-------------------------------------------

Initial solution 1.	PURE WATER

-----------------------------Solution composition------------------------------

	Elements           Molality       Moles

	Pure water     

----------------------------Description of solution----------------------------

                                       pH  =   7.000    
                                       pe  =   4.000    
       Specific Conductance (uS/cm, 25 oC) = 0
                          Density (g/cm3)  =   0.99705
                        Activity of water  =   1.000
                           Ionic strength  =   1.001e-07
                       Mass of water (kg)  =   1.000e+00
                 Total alkalinity (eq/kg)  =   1.082e-10
                    Total carbon (mol/kg)  =   0.000e+00
                       Total CO2 (mol/kg)  =   0.000e+00
                      Temperature (deg C)  =  25.000
                  Electrical balance (eq)  =  -1.082e-10
 Percent error, 100*(Cat-|An|)/(Cat+|An|)  =  -0.05
                               Iterations  =   0
                                  Total H  = 1.110124e+02
                                  Total O  = 5.550622e+01

----------------------------Distribution of species----------------------------

                                                   Log       Log         Log 
   Species                 Molality    Activity  Molality  Activity     Gamma

   OH-                    1.002e-07   1.001e-07    -6.999    -6.999    -0.000
   H+                     1.001e-07   1.000e-07    -7.000    -7.000    -0.000
   H2O                    5.551e+01   1.000e+00     1.744     0.000     0.000
H(0)             1.416e-25
   H2                     7.079e-26   7.079e-26   -25.150   -25.150     0.000
O(0)             0.000e+00
   O2                     0.000e+00   0.000e+00   -42.080   -42.080     0.000

------------------------------Saturation indices-------------------------------

	Phase               SI log IAP  log KT

	H2(g)           -22.00  -25.15   -3.15  H2
	H2O(g)           -1.51    0.00    1.51  H2O
	O2(g)           -39.19  -42.08   -2.89  O2

-----------------------------------------
Beginning of batch-reaction calculations.
-----------------------------------------

Reaction step 1.

Using solution 1.	PURE WATER
Using pure phase assemblage 1.	
Using reaction 1.	

Reaction 1.	Irreversible reaction defined in simulation 1.

	  0.000e+00 moles of the following reaction have been added:

	                 Relative
	Reactant            moles

	O2                   1.00000

	                 Relative
	Element             moles
	O                    2.00000

-------------------------------Phase assemblage--------------------------------

                                                      Moles in assemblage
Phase                  SI log IAP  log KT      Initial       Final       Delta

Calcite             -0.00   -8.48   -8.48    1.000e+01   1.000e+01  -1.228e-04
Goethite            -0.00   -1.00   -1.00    1.000e+01   1.000e+01   1.476e-07
Gypsum              -6.29  -10.87   -4.58    0.000e+00           0   0.000e+00
Pyrite              -0.00  -18.48  -18.48    1.000e+01   1.000e+01  -1.477e-07

-----------------------------Solution composition------------------------------

	Elements           Molality       Moles

	C                 1.228e-04   1.228e-04
	Ca                1.228e-04   1.228e-04
	Fe                7.868e-11   7.868e-11
	S                 2.955e-07   2.955e-07

----------------------------Description of solution----------------------------

                                       pH  =   9.909      Charge balance
                                       pe  =  -6.952      Adjusted to redox equilibrium
       Specific Conductance (uS/cm, 25 oC) = 37
                          Density (g/cm3)  =   0.99706
                        Activity of water  =   1.000
                           Ionic strength  =   3.853e-04
                       Mass of water (kg)  =   1.000e+00
                 Total alkalinity (eq/kg)  =   2.454e-04
                       Total CO2 (mol/kg)  =   1.227e-04
                      Temperature (deg C)  =  25.000
                  Electrical balance (eq)  =  -1.082e-10
 Percent error, 100*(Cat-|An|)/(Cat+|An|)  =  -0.00
                               Iterations  =  17
                                  Total H  = 1.110124e+02
                                  Total O  = 5.550659e+01

----------------------------Distribution of species----------------------------

                                                   Log       Log         Log 
   Species                 Molality    Activity  Molality  Activity     Gamma

   OH-                    8.302e-05   8.117e-05    -4.081    -4.091    -0.010
   H+                     1.260e-10   1.233e-10    -9.900    -9.909    -0.009
   H2O                    5.551e+01   1.000e+00     1.744    -0.000     0.000
C(-4)            1.214e-07
   CH4                    1.214e-07   1.214e-07    -6.916    -6.916     0.000
C(4)             1.227e-04
   HCO3-                  8.320e-05   8.137e-05    -4.080    -4.090    -0.010
   CO3-2                  3.382e-05   3.094e-05    -4.471    -4.509    -0.039
   CaCO3                  5.564e-06   5.565e-06    -5.255    -5.255     0.000
   CaHCO3+                1.136e-07   1.111e-07    -6.944    -6.954    -0.010
   CO2                    2.256e-08   2.256e-08    -7.647    -7.647     0.000
   FeCO3                  1.304e-11   1.304e-11   -10.885   -10.885     0.000
   FeHCO3+                1.462e-13   1.429e-13   -12.835   -12.845    -0.010
Ca               1.228e-04
   Ca+2                   1.170e-04   1.071e-04    -3.932    -3.970    -0.039
   CaCO3                  5.564e-06   5.565e-06    -5.255    -5.255     0.000
   CaOH+                  1.473e-07   1.441e-07    -6.832    -6.841    -0.010
   CaHCO3+                1.136e-07   1.111e-07    -6.944    -6.954    -0.010
   CaSO4                  2.684e-09   2.684e-09    -8.571    -8.571     0.000
   CaHSO4+                1.983e-18   1.939e-18   -17.703   -17.712    -0.010
Fe(2)            7.844e-11
   FeOH+                  4.606e-11   4.504e-11   -10.337   -10.346    -0.010
   Fe+2                   1.919e-11   1.757e-11   -10.717   -10.755    -0.038
   FeCO3                  1.304e-11   1.304e-11   -10.885   -10.885     0.000
   FeHCO3+                1.462e-13   1.429e-13   -12.835   -12.845    -0.010
   FeSO4                  3.925e-16   3.925e-16   -15.406   -15.406     0.000
   Fe(HS)2                3.598e-16   3.599e-16   -15.444   -15.444     0.000
   Fe(HS)3-               6.076e-21   5.941e-21   -20.216   -20.226    -0.010
   FeHSO4+                3.254e-25   3.182e-25   -24.488   -24.497    -0.010
Fe(3)            2.359e-13
   Fe(OH)4-               2.083e-13   2.037e-13   -12.681   -12.691    -0.010
   Fe(OH)3                2.754e-14   2.754e-14   -13.560   -13.560     0.000
   Fe(OH)2+               2.696e-17   2.637e-17   -16.569   -16.579    -0.010
   FeOH+2                 1.074e-23   9.820e-24   -22.969   -23.008    -0.039
   Fe+3                   2.281e-31   1.876e-31   -30.642   -30.727    -0.085
   FeSO4+                 2.643e-34   2.584e-34   -33.578   -33.588    -0.010
   Fe(SO4)2-              7.265e-40   7.104e-40   -39.139   -39.148    -0.010
   FeHSO4+2               0.000e+00   0.000e+00   -43.030   -43.069    -0.039
   Fe2(OH)2+4             0.000e+00   0.000e+00   -44.430   -44.586    -0.156
   Fe3(OH)4+5             0.000e+00   0.000e+00   -58.601   -58.845    -0.244
H(0)             1.722e-09
   H2                     8.612e-10   8.612e-10    -9.065    -9.065     0.000
O(0)             0.000e+00
   O2                     0.000e+00   0.000e+00   -74.250   -74.250     0.000
S(-2)            1.554e-07
   HS-                    1.551e-07   1.516e-07    -6.809    -6.819    -0.010
   H2S                    1.635e-10   1.635e-10    -9.787    -9.787     0.000
   S-2                    1.623e-10   1.485e-10    -9.790    -9.828    -0.039
   Fe(HS)2                3.598e-16   3.599e-16   -15.444   -15.444     0.000
   Fe(HS)3-               6.076e-21   5.941e-21   -20.216   -20.226    -0.010
S(6)             1.401e-07
   SO4-2                  1.374e-07   1.257e-07    -6.862    -6.901    -0.039
   CaSO4                  2.684e-09   2.684e-09    -8.571    -8.571     0.000
   HSO4-                  1.541e-15   1.507e-15   -14.812   -14.822    -0.010
   FeSO4                  3.925e-16   3.925e-16   -15.406   -15.406     0.000
   CaHSO4+                1.983e-18   1.939e-18   -17.703   -17.712    -0.010
   FeHSO4+                3.254e-25   3.182e-25   -24.488   -24.497    -0.010
   FeSO4+                 2.643e-34   2.584e-34   -33.578   -33.588    -0.010
   Fe(SO4)2-              7.265e-40   7.104e-40   -39.139   -39.148    -0.010
   FeHSO4+2               0.000e+00   0.000e+00   -43.030   -43.069    -0.039

------------------------------Saturation indices-------------------------------

	Phase               SI log IAP  log KT

	Anhydrite        -6.51  -10.87   -4.36  CaSO4
	Aragonite        -0.14   -8.48   -8.34  CaCO3
	Calcite          -0.00   -8.48   -8.48  CaCO3
	CH4(g)           -4.06   -6.92   -2.86  CH4
	CO2(g)           -6.18   -7.65   -1.47  CO2
	Fe(OH)3(a)       -5.89   -1.00    4.89  Fe(OH)3
	FeS(ppt)         -3.75   -7.67   -3.92  FeS
	Goethite         -0.00   -1.00   -1.00  FeOOH
	Gypsum           -6.29  -10.87   -4.58  CaSO4:2H2O
	H2(g)            -5.91   -9.06   -3.15  H2
	H2O(g)           -1.51   -0.00    1.51  H2O
	H2S(g)           -8.79   -9.79   -1.00  H2S
	Hematite          2.01   -2.00   -4.01  Fe2O3
	Mackinawite      -3.02   -7.67   -4.65  FeS
	Melanterite     -15.45  -17.66   -2.21  FeSO4:7H2O
	O2(g)           -71.36  -74.25   -2.89  O2
	Pyrite           -0.00  -18.48  -18.48  FeS2
	Siderite         -4.37  -15.26  -10.89  FeCO3
	Sulfur           -8.75   -3.87    4.88  S

Reaction step 2.

Using solution 1.	PURE WATER
Using pure phase assemblage 1.	
Using reaction 1.	

Reaction 1.	Irreversible reaction defined in simulation 1.

	  1.000e-03 moles of the following reaction have been added:

	                 Relative
	Reactant            moles

	O2                   1.00000

	                 Relative
	Element             moles
	O                    2.00000

-------------------------------Phase assemblage--------------------------------

                                                      Moles in assemblage
Phase                  SI log IAP  log KT      Initial       Final       Delta

Calcite              0.00   -8.48   -8.48    1.000e+01   9.999e+00  -1.057e-03
Goethite             0.00   -1.00   -1.00    1.000e+01   1.000e+01   2.666e-04
Gypsum              -1.97   -6.55   -4.58    0.000e+00           0   0.000e+00
Pyrite              -0.00  -18.48  -18.48    1.000e+01   1.000e+01  -2.667e-04

-----------------------------Solution composition------------------------------

	Elements           Molality       Moles

	C                 1.057e-03   1.057e-03
	Ca                1.057e-03   1.057e-03
	Fe                2.068e-08   2.068e-08
	S                 5.333e-04   5.333e-04

----------------------------Description of solution----------------------------

                                       pH  =   7.986      Charge balance
                                       pe  =  -4.053      Adjusted to redox equilibrium
       Specific Conductance (uS/cm, 25 oC) = 218
                          Density (g/cm3)  =   0.99719
                        Activity of water  =   1.000
                           Ionic strength  =   3.446e-03
                       Mass of water (kg)  =   1.000e+00
                 Total alkalinity (eq/kg)  =   1.047e-03
                       Total CO2 (mol/kg)  =   1.057e-03
                      Temperature (deg C)  =  25.000
                  Electrical balance (eq)  =  -1.082e-10
 Percent error, 100*(Cat-|An|)/(Cat+|An|)  =  -0.00
                               Iterations  =  23
                                  Total H  = 1.110122e+02
                                  Total O  = 5.551085e+01

----------------------------Distribution of species----------------------------

                                                   Log       Log         Log 
   Species                 Molality    Activity  Molality  Activity     Gamma

   OH-                    1.033e-06   9.683e-07    -5.986    -6.014    -0.028
   H+                     1.096e-08   1.034e-08    -7.960    -7.986    -0.025
   H2O                    5.551e+01   1.000e+00     1.744    -0.000     0.000
C(-4)            1.867e-12
   CH4                    1.867e-12   1.868e-12   -11.729   -11.729     0.000
C(4)             1.057e-03
   HCO3-                  1.014e-03   9.523e-04    -2.994    -3.021    -0.027
   CO2                    2.212e-05   2.214e-05    -4.655    -4.655     0.000
   CaHCO3+                9.916e-06   9.317e-06    -5.004    -5.031    -0.027
   CaCO3                  5.560e-06   5.565e-06    -5.255    -5.255     0.000
   CO3-2                  5.543e-06   4.320e-06    -5.256    -5.365    -0.108
   FeCO3                  1.352e-09   1.353e-09    -8.869    -8.869     0.000
   FeHCO3+                1.326e-09   1.244e-09    -8.878    -8.905    -0.028
Ca               1.057e-03
   Ca+2                   9.845e-04   7.669e-04    -3.007    -3.115    -0.109
   CaSO4                  5.667e-05   5.672e-05    -4.247    -4.246     0.000
   CaHCO3+                9.916e-06   9.317e-06    -5.004    -5.031    -0.027
   CaCO3                  5.560e-06   5.565e-06    -5.255    -5.255     0.000
   CaOH+                  1.312e-08   1.231e-08    -7.882    -7.910    -0.028
   CaHSO4+                3.661e-12   3.435e-12   -11.436   -11.464    -0.028
Fe(2)            2.068e-08
   Fe+2                   1.672e-08   1.306e-08    -7.777    -7.884    -0.107
   FeCO3                  1.352e-09   1.353e-09    -8.869    -8.869     0.000
   FeHCO3+                1.326e-09   1.244e-09    -8.878    -8.905    -0.028
   FeSO4                  8.602e-10   8.609e-10    -9.065    -9.065     0.000
   FeOH+                  4.258e-10   3.995e-10    -9.371    -9.399    -0.028
   FeHSO4+                6.235e-17   5.850e-17   -16.205   -16.233    -0.028
   Fe(HS)2                4.024e-18   4.027e-18   -17.395   -17.395     0.000
   Fe(HS)3-               2.750e-25   2.580e-25   -24.561   -24.588    -0.028
Fe(3)            3.246e-14
   Fe(OH)3                2.752e-14   2.754e-14   -13.560   -13.560     0.000
   Fe(OH)4-               2.590e-15   2.430e-15   -14.587   -14.614    -0.028
   Fe(OH)2+               2.356e-15   2.210e-15   -14.628   -14.656    -0.028
   FeOH+2                 8.907e-20   6.901e-20   -19.050   -19.161    -0.111
   FeSO4+                 4.787e-25   4.491e-25   -24.320   -24.348    -0.028
   Fe+3                   1.874e-25   1.105e-25   -24.727   -24.957    -0.229
   Fe(SO4)2-              3.882e-27   3.642e-27   -26.411   -26.439    -0.028
   FeHSO4+2               1.605e-32   1.243e-32   -31.795   -31.905    -0.111
   Fe2(OH)2+4             3.558e-37   1.282e-37   -36.449   -36.892    -0.443
   Fe3(OH)4+5             0.000e+00   0.000e+00   -48.535   -49.228    -0.693
H(0)             1.926e-11
   H2                     9.631e-12   9.638e-12   -11.016   -11.016     0.000
O(0)             0.000e+00
   O2                     0.000e+00   0.000e+00   -70.348   -70.348     0.000
S(-2)            6.805e-10
   HS-                    6.274e-10   5.882e-10    -9.202    -9.230    -0.028
   H2S                    5.313e-11   5.317e-11   -10.275   -10.274     0.000
   S-2                    8.834e-15   6.872e-15   -14.054   -14.163    -0.109
   Fe(HS)2                4.024e-18   4.027e-18   -17.395   -17.395     0.000
   Fe(HS)3-               2.750e-25   2.580e-25   -24.561   -24.588    -0.028
S(6)             5.333e-04
   SO4-2                  4.767e-04   3.707e-04    -3.322    -3.431    -0.109
   CaSO4                  5.667e-05   5.672e-05    -4.247    -4.246     0.000
   FeSO4                  8.602e-10   8.609e-10    -9.065    -9.065     0.000
   HSO4-                  3.971e-10   3.726e-10    -9.401    -9.429    -0.028
   CaHSO4+                3.661e-12   3.435e-12   -11.436   -11.464    -0.028
   FeHSO4+                6.235e-17   5.850e-17   -16.205   -16.233    -0.028
   FeSO4+                 4.787e-25   4.491e-25   -24.320   -24.348    -0.028
   Fe(SO4)2-              3.882e-27   3.642e-27   -26.411   -26.439    -0.028
   FeHSO4+2               1.605e-32   1.243e-32   -31.795   -31.905    -0.111

------------------------------Saturation indices-------------------------------

	Phase               SI log IAP  log KT

	Anhydrite        -2.19   -6.55   -4.36  CaSO4
	Aragonite        -0.14   -8.48   -8.34  CaCO3
	Calcite           0.00   -8.48   -8.48  CaCO3
	CH4(g)           -8.87  -11.73   -2.86  CH4
	CO2(g)           -3.19   -4.65   -1.47  CO2
	Fe(OH)3(a)       -5.89   -1.00    4.89  Fe(OH)3
	FeS(ppt)         -5.21   -9.13   -3.92  FeS
	Goethite          0.00   -1.00   -1.00  FeOOH
	Gypsum           -1.97   -6.55   -4.58  CaSO4:2H2O
	H2(g)            -7.87  -11.02   -3.15  H2
	H2O(g)           -1.51   -0.00    1.51  H2O
	H2S(g)           -9.28  -10.27   -1.00  H2S
	Hematite          2.01   -2.00   -4.01  Fe2O3
	Mackinawite      -4.48   -9.13   -4.65  FeS
	Melanterite      -9.11  -11.32   -2.21  FeSO4:7H2O
	O2(g)           -67.46  -70.35   -2.89  O2
	Pyrite           -0.00  -18.48  -18.48  FeS2
	Siderite         -2.36  -13.25  -10.89  FeCO3
	Sulfur           -7.29   -2.41    4.88  S

Reaction step 3.

Using solution 1.	PURE WATER
Using pure phase assemblage 1.	
Using reaction 1.	

Reaction 1.	Irreversible reaction defined in simulation 1.

	  5.000e-03 moles of the following reaction have been added:

	                 Relative
	Reactant            moles

	O2                   1.00000

	                 Relative
	Element             moles
	O                    2.00000

-------------------------------Phase assemblage--------------------------------

                                                      Moles in assemblage
Phase                  SI log IAP  log KT      Initial       Final       Delta

Calcite             -0.00   -8.48   -8.48    1.000e+01   9.995e+00  -4.538e-03
Goethite             0.00   -1.00   -1.00    1.000e+01   1.000e+01   1.332e-03
Gypsum              -0.93   -5.51   -4.58    0.000e+00           0   0.000e+00
Pyrite               0.00  -18.48  -18.48    1.000e+01   9.999e+00  -1.333e-03

-----------------------------Solution composition------------------------------

	Elements           Molality       Moles

	C                 4.538e-03   4.538e-03
	Ca                4.538e-03   4.538e-03
	Fe                1.469e-06   1.469e-06
	S                 2.667e-03   2.667e-03

----------------------------Description of solution----------------------------

                                       pH  =   6.957      Charge balance
                                       pe  =  -2.677      Adjusted to redox equilibrium
       Specific Conductance (uS/cm, 25 oC) = 798
                          Density (g/cm3)  =   0.99766
                        Activity of water  =   1.000
                           Ionic strength  =   1.357e-02
                       Mass of water (kg)  =   1.000e+00
                 Total alkalinity (eq/kg)  =   3.746e-03
                       Total CO2 (mol/kg)  =   4.538e-03
                      Temperature (deg C)  =  25.000
                  Electrical balance (eq)  =  -1.082e-10
 Percent error, 100*(Cat-|An|)/(Cat+|An|)  =  -0.00
                               Iterations  =  24
                                  Total H  = 1.110111e+02
                                  Total O  = 5.552717e+01

----------------------------Distribution of species----------------------------

                                                   Log       Log         Log 
   Species                 Molality    Activity  Molality  Activity     Gamma

   H+                     1.223e-07   1.105e-07    -6.913    -6.957    -0.044
   OH-                    1.022e-07   9.060e-08    -6.991    -7.043    -0.052
   H2O                    5.551e+01   9.998e-01     1.744    -0.000     0.000
C(-4)            1.138e-13
   CH4                    1.138e-13   1.142e-13   -12.944   -12.942     0.001
C(4)             4.538e-03
   HCO3-                  3.619e-03   3.231e-03    -2.441    -2.491    -0.049
   CO2                    8.003e-04   8.028e-04    -3.097    -3.095     0.001
   CaHCO3+                1.115e-04   9.956e-05    -3.953    -4.002    -0.049
   CaCO3                  5.547e-06   5.565e-06    -5.256    -5.255     0.001
   CO3-2                  2.157e-06   1.372e-06    -5.666    -5.863    -0.197
   FeHCO3+                2.440e-07   2.170e-07    -6.613    -6.664    -0.051
   FeCO3                  2.203e-08   2.209e-08    -7.657    -7.656     0.001
Ca               4.538e-03
   Ca+2                   3.801e-03   2.415e-03    -2.420    -2.617    -0.197
   CaSO4                  6.206e-04   6.225e-04    -3.207    -3.206     0.001
   CaHCO3+                1.115e-04   9.956e-05    -3.953    -4.002    -0.049
   CaCO3                  5.547e-06   5.565e-06    -5.256    -5.255     0.001
   CaOH+                  4.080e-09   3.627e-09    -8.389    -8.440    -0.051
   CaHSO4+                4.532e-10   4.029e-10    -9.344    -9.395    -0.051
Fe(2)            1.469e-06
   Fe+2                   1.047e-06   6.715e-07    -5.980    -6.173    -0.193
   FeHCO3+                2.440e-07   2.170e-07    -6.613    -6.664    -0.051
   FeSO4                  1.538e-07   1.543e-07    -6.813    -6.812     0.001
   FeCO3                  2.203e-08   2.209e-08    -7.657    -7.656     0.001
   FeOH+                  2.161e-09   1.922e-09    -8.665    -8.716    -0.051
   FeHSO4+                1.260e-13   1.120e-13   -12.900   -12.951    -0.051
   Fe(HS)2                8.133e-19   8.159e-19   -18.090   -18.088     0.001
   Fe(HS)3-               3.690e-27   3.280e-27   -26.433   -26.484    -0.051
Fe(3)            5.429e-14
   Fe(OH)3                2.745e-14   2.754e-14   -13.561   -13.560     0.001
   Fe(OH)2+               2.657e-14   2.362e-14   -13.576   -13.627    -0.051
   Fe(OH)4-               2.556e-16   2.273e-16   -15.592   -15.643    -0.051
   FeOH+2                 1.261e-17   7.882e-18   -16.899   -17.103    -0.204
   FeSO4+                 2.149e-21   1.911e-21   -20.668   -20.719    -0.051
   Fe+3                   3.367e-22   1.349e-22   -21.473   -21.870    -0.397
   Fe(SO4)2-              6.074e-23   5.401e-23   -22.217   -22.268    -0.051
   FeHSO4+2               9.047e-28   5.653e-28   -27.043   -27.248    -0.204
   Fe2(OH)2+4             1.097e-32   1.672e-33   -31.960   -32.777    -0.817
   Fe3(OH)4+5             0.000e+00   0.000e+00   -42.807   -44.083    -1.276
H(0)             3.893e-12
   H2                     1.947e-12   1.953e-12   -11.711   -11.709     0.001
O(0)             0.000e+00
   O2                     0.000e+00   0.000e+00   -68.963   -68.961     0.001
S(-2)            7.720e-11
   HS-                    4.165e-11   3.692e-11   -10.380   -10.433    -0.052
   H2S                    3.555e-11   3.567e-11   -10.449   -10.448     0.001
   S-2                    6.386e-17   4.037e-17   -16.195   -16.394    -0.199
   Fe(HS)2                8.133e-19   8.159e-19   -18.090   -18.088     0.001
   Fe(HS)3-               3.690e-27   3.280e-27   -26.433   -26.484    -0.051
S(6)             2.667e-03
   SO4-2                  2.046e-03   1.292e-03    -2.689    -2.889    -0.200
   CaSO4                  6.206e-04   6.225e-04    -3.207    -3.206     0.001
   FeSO4                  1.538e-07   1.543e-07    -6.813    -6.812     0.001
   HSO4-                  1.561e-08   1.388e-08    -7.807    -7.858    -0.051
   CaHSO4+                4.532e-10   4.029e-10    -9.344    -9.395    -0.051
   FeHSO4+                1.260e-13   1.120e-13   -12.900   -12.951    -0.051
   FeSO4+                 2.149e-21   1.911e-21   -20.668   -20.719    -0.051
   Fe(SO4)2-              6.074e-23   5.401e-23   -22.217   -22.268    -0.051
   FeHSO4+2               9.047e-28   5.653e-28   -27.043   -27.248    -0.204

------------------------------Saturation indices-------------------------------

	Phase               SI log IAP  log KT

	Anhydrite        -1.15   -5.51   -4.36  CaSO4
	Aragonite        -0.14   -8.48   -8.34  CaCO3
	Calcite          -0.00   -8.48   -8.48  CaCO3
	CH4(g)          -10.08  -12.94   -2.86  CH4
	CO2(g)           -1.63   -3.10   -1.47  CO2
	Fe(OH)3(a)       -5.89   -1.00    4.89  Fe(OH)3
	FeS(ppt)         -5.73   -9.65   -3.92  FeS
	Goethite          0.00   -1.00   -1.00  FeOOH
	Gypsum           -0.93   -5.51   -4.58  CaSO4:2H2O
	H2(g)            -8.56  -11.71   -3.15  H2
	H2O(g)           -1.51   -0.00    1.51  H2O
	H2S(g)           -9.45  -10.45   -1.00  H2S
	Hematite          2.01   -2.00   -4.01  Fe2O3
	Mackinawite      -5.00   -9.65   -4.65  FeS
	Melanterite      -6.85   -9.06   -2.21  FeSO4:7H2O
	O2(g)           -66.07  -68.96   -2.89  O2
	Pyrite            0.00  -18.48  -18.48  FeS2
	Siderite         -1.15  -12.04  -10.89  FeCO3
	Sulfur           -6.77   -1.89    4.88  S

Reaction step 4.

Using solution 1.	PURE WATER
Using pure phase assemblage 1.	
Using reaction 1.	

Reaction 1.	Irreversible reaction defined in simulation 1.

	  1.000e-02 moles of the following reaction have been added:

	                 Relative
	Reactant            moles

	O2                   1.00000

	                 Relative
	Element             moles
	O                    2.00000

-------------------------------Phase assemblage--------------------------------

                                                      Moles in assemblage
Phase                  SI log IAP  log KT      Initial       Final       Delta

Calcite              0.00   -8.48   -8.48    1.000e+01   9.992e+00  -8.151e-03
Goethite             0.00   -1.00   -1.00    1.000e+01   1.000e+01   2.661e-03
Gypsum              -0.53   -5.11   -4.58    0.000e+00           0   0.000e+00
Pyrite              -0.00  -18.48  -18.48    1.000e+01   9.997e+00  -2.667e-03

-----------------------------Solution composition------------------------------

	Elements           Molality       Moles

	C                 8.152e-03   8.151e-03
	Ca                8.152e-03   8.151e-03
	Fe                6.445e-06   6.445e-06
	S                 5.335e-03   5.334e-03

----------------------------Description of solution----------------------------

                                       pH  =   6.620      Charge balance
                                       pe  =  -2.221      Adjusted to redox equilibrium
       Specific Conductance (uS/cm, 25 oC) = 1303
                          Density (g/cm3)  =   0.99815
                        Activity of water  =   1.000
                           Ionic strength  =   2.313e-02
                       Mass of water (kg)  =   9.999e-01
                 Total alkalinity (eq/kg)  =   5.647e-03
                       Total CO2 (mol/kg)  =   8.152e-03
                      Temperature (deg C)  =  25.000
                  Electrical balance (eq)  =  -1.077e-10
 Percent error, 100*(Cat-|An|)/(Cat+|An|)  =  -0.00
                               Iterations  =  24
                                  Total H  = 1.110098e+02
                                  Total O  = 5.554535e+01

----------------------------Distribution of species----------------------------

                                                   Log       Log         Log 
   Species                 Molality    Activity  Molality  Activity     Gamma

   H+                     2.714e-07   2.400e-07    -6.566    -6.620    -0.053
   OH-                    4.854e-08   4.170e-08    -7.314    -7.380    -0.066
   H2O                    5.551e+01   9.997e-01     1.744    -0.000     0.000
C(-4)            3.982e-14
   CH4                    3.982e-14   4.004e-14   -13.400   -13.398     0.002
C(4)             8.152e-03
   HCO3-                  5.383e-03   4.677e-03    -2.269    -2.330    -0.061
   CO2                    2.511e-03   2.525e-03    -2.600    -2.598     0.002
   CaHCO3+                2.489e-04   2.163e-04    -3.604    -3.665    -0.061
   CaCO3                  5.535e-06   5.565e-06    -5.257    -5.255     0.002
   CO3-2                  1.603e-06   9.140e-07    -5.795    -6.039    -0.244
   FeHCO3+                1.305e-06   1.127e-06    -5.884    -5.948    -0.064
   FeCO3                  5.255e-08   5.283e-08    -7.279    -7.277     0.002
Ca               8.152e-03
   Ca+2                   6.358e-03   3.624e-03    -2.197    -2.441    -0.244
   CaSO4                  1.539e-03   1.547e-03    -2.813    -2.810     0.002
   CaHCO3+                2.489e-04   2.163e-04    -3.604    -3.665    -0.061
   CaCO3                  5.535e-06   5.565e-06    -5.257    -5.255     0.002
   CaOH+                  2.901e-09   2.505e-09    -8.537    -8.601    -0.064
   CaHSO4+                2.519e-09   2.175e-09    -8.599    -8.663    -0.064
Fe(2)            6.445e-06
   Fe+2                   4.172e-06   2.409e-06    -5.380    -5.618    -0.238
   FeHCO3+                1.305e-06   1.127e-06    -5.884    -5.948    -0.064
   FeSO4                  9.118e-07   9.167e-07    -6.040    -6.038     0.002
   FeCO3                  5.255e-08   5.283e-08    -7.279    -7.277     0.002
   FeOH+                  3.675e-09   3.174e-09    -8.435    -8.498    -0.064
   FeHSO4+                1.675e-12   1.446e-12   -11.776   -11.840    -0.064
   Fe(HS)2                4.689e-19   4.714e-19   -18.329   -18.327     0.002
   Fe(HS)3-               8.808e-28   7.606e-28   -27.055   -27.119    -0.064
Fe(3)            8.699e-14
   Fe(OH)2+               5.942e-14   5.131e-14   -13.226   -13.290    -0.064
   Fe(OH)3                2.739e-14   2.753e-14   -13.562   -13.560     0.002
   Fe(OH)4-               1.211e-16   1.046e-16   -15.917   -15.980    -0.064
   FeOH+2                 6.689e-17   3.720e-17   -16.175   -16.429    -0.255
   FeSO4+                 3.758e-20   3.245e-20   -19.425   -19.489    -0.064
   Fe+3                   4.187e-21   1.383e-21   -20.378   -20.859    -0.481
   Fe(SO4)2-              1.759e-21   1.519e-21   -20.755   -20.818    -0.064
   FeHSO4+2               3.750e-26   2.085e-26   -25.426   -25.681    -0.255
   Fe2(OH)2+4             3.894e-31   3.725e-32   -30.410   -31.429    -1.019
   Fe3(OH)4+5             0.000e+00   0.000e+00   -40.806   -42.399    -1.593
H(0)             2.245e-12
   H2                     1.122e-12   1.128e-12   -11.950   -11.948     0.002
O(0)             0.000e+00
   O2                     0.000e+00   0.000e+00   -68.487   -68.485     0.002
S(-2)            4.817e-11
   H2S                    3.093e-11   3.109e-11   -10.510   -10.507     0.002
   HS-                    1.725e-11   1.482e-11   -10.763   -10.829    -0.066
   S-2                    1.320e-17   7.457e-18   -16.879   -17.127    -0.248
   Fe(HS)2                4.689e-19   4.714e-19   -18.329   -18.327     0.002
   Fe(HS)3-               8.808e-28   7.606e-28   -27.055   -27.119    -0.064
S(6)             5.335e-03
   SO4-2                  3.795e-03   2.139e-03    -2.421    -2.670    -0.249
   CaSO4                  1.539e-03   1.547e-03    -2.813    -2.810     0.002
   FeSO4                  9.118e-07   9.167e-07    -6.040    -6.038     0.002
   HSO4-                  5.781e-08   4.992e-08    -7.238    -7.302    -0.064
   CaHSO4+                2.519e-09   2.175e-09    -8.599    -8.663    -0.064
   FeHSO4+                1.675e-12   1.446e-12   -11.776   -11.840    -0.064
   FeSO4+                 3.758e-20   3.245e-20   -19.425   -19.489    -0.064
   Fe(SO4)2-              1.759e-21   1.519e-21   -20.755   -20.818    -0.064
   FeHSO4+2               3.750e-26   2.085e-26   -25.426   -25.681    -0.255

------------------------------Saturation indices-------------------------------

	Phase               SI log IAP  log KT

	Anhydrite        -0.75   -5.11   -4.36  CaSO4
	Aragonite        -0.14   -8.48   -8.34  CaCO3
	Calcite           0.00   -8.48   -8.48  CaCO3
	CH4(g)          -10.54  -13.40   -2.86  CH4
	CO2(g)           -1.13   -2.60   -1.47  CO2
	Fe(OH)3(a)       -5.89   -1.00    4.89  Fe(OH)3
	FeS(ppt)         -5.91   -9.83   -3.92  FeS
	Goethite          0.00   -1.00   -1.00  FeOOH
	Gypsum           -0.53   -5.11   -4.58  CaSO4:2H2O
	H2(g)            -8.80  -11.95   -3.15  H2
	H2O(g)           -1.51   -0.00    1.51  H2O
	H2S(g)           -9.51  -10.51   -1.00  H2S
	Hematite          2.01   -2.00   -4.01  Fe2O3
	Mackinawite      -5.18   -9.83   -4.65  FeS
	Melanterite      -6.08   -8.29   -2.21  FeSO4:7H2O
	O2(g)           -65.59  -68.49   -2.89  O2
	Pyrite           -0.00  -18.48  -18.48  FeS2
	Siderite         -0.77  -11.66  -10.89  FeCO3
	Sulfur           -6.59   -1.71    4.88  S

Reaction step 5.

Using solution 1.	PURE WATER
Using pure phase assemblage 1.	
Using reaction 1.	

Reaction 1.	Irreversible reaction defined in simulation 1.

	  5.000e-02 moles of the following reaction have been added:

	                 Relative
	Reactant            moles

	O2                   1.00000

	                 Relative
	Element             moles
	O                    2.00000

-------------------------------Phase assemblage--------------------------------

                                                      Moles in assemblage
Phase                  SI log IAP  log KT      Initial       Final       Delta

Calcite              0.00   -8.48   -8.48    1.000e+01   9.967e+00  -3.306e-02
Goethite             0.00   -1.00   -1.00    1.000e+01   1.001e+01   1.325e-02
Gypsum              -0.00   -4.58   -4.58    0.000e+00   1.276e-02   1.276e-02
Pyrite               0.00  -18.48  -18.48    1.000e+01   9.987e+00  -1.334e-02

-----------------------------Solution composition------------------------------

	Elements           Molality       Moles

	C                 3.308e-02   3.306e-02
	Ca                2.031e-02   2.030e-02
	Fe                9.140e-05   9.133e-05
	S                 1.393e-02   1.392e-02

----------------------------Description of solution----------------------------

                                       pH  =   6.036      Charge balance
                                       pe  =  -1.446      Adjusted to redox equilibrium
       Specific Conductance (uS/cm, 25 oC) = 2733
                          Density (g/cm3)  =   0.99980
                        Activity of water  =   0.999
                           Ionic strength  =   5.227e-02
                       Mass of water (kg)  =   9.993e-01
                 Total alkalinity (eq/kg)  =   1.295e-02
                       Total CO2 (mol/kg)  =   3.308e-02
                      Temperature (deg C)  =  25.000
                  Electrical balance (eq)  =  -1.082e-10
 Percent error, 100*(Cat-|An|)/(Cat+|An|)  =  -0.00
                               Iterations  =  25
                                  Total H  = 1.109481e+02
                                  Total O  = 5.560234e+01

----------------------------Distribution of species----------------------------

                                                   Log       Log         Log 
   Species                 Molality    Activity  Molality  Activity     Gamma

   H+                     1.080e-06   9.201e-07    -5.967    -6.036    -0.069
   OH-                    1.344e-08   1.087e-08    -7.872    -7.964    -0.092
   H2O                    5.551e+01   9.990e-01     1.744    -0.000     0.000
C(-4)            9.338e-15
   CH4                    9.338e-15   9.451e-15   -14.030   -14.025     0.005
C(4)             3.308e-02
   CO2                    2.014e-02   2.038e-02    -1.696    -1.691     0.005
   HCO3-                  1.191e-02   9.841e-03    -1.924    -2.007    -0.083
   CaHCO3+                1.003e-03   8.292e-04    -2.998    -3.081    -0.083
   FeHCO3+                2.740e-05   2.244e-05    -4.562    -4.649    -0.087
   CaCO3                  5.498e-06   5.565e-06    -5.260    -5.255     0.005
   CO3-2                  1.076e-06   5.016e-07    -5.968    -6.300    -0.331
   FeCO3                  2.711e-07   2.743e-07    -6.567    -6.562     0.005
Ca               2.031e-02
   Ca+2                   1.412e-02   6.604e-03    -1.850    -2.180    -0.330
   CaSO4                  5.185e-03   5.248e-03    -2.285    -2.280     0.005
   CaHCO3+                1.003e-03   8.292e-04    -2.998    -3.081    -0.083
   CaCO3                  5.498e-06   5.565e-06    -5.260    -5.255     0.005
   CaHSO4+                3.454e-08   2.829e-08    -7.462    -7.548    -0.087
   CaOH+                  1.453e-09   1.190e-09    -8.838    -8.924    -0.087
Fe(2)            9.140e-05
   Fe+2                   4.776e-05   2.280e-05    -4.321    -4.642    -0.321
   FeHCO3+                2.740e-05   2.244e-05    -4.562    -4.649    -0.087
   FeSO4                  1.595e-05   1.615e-05    -4.797    -4.792     0.005
   FeCO3                  2.711e-07   2.743e-07    -6.567    -6.562     0.005
   FeOH+                  9.560e-09   7.828e-09    -8.020    -8.106    -0.087
   FeHSO4+                1.193e-10   9.766e-11    -9.923   -10.010    -0.087
   Fe(HS)2                1.926e-19   1.949e-19   -18.715   -18.710     0.005
   Fe(HS)3-               8.026e-29   6.572e-29   -28.096   -28.182    -0.087
Fe(3)            2.687e-13
   Fe(OH)2+               2.402e-13   1.967e-13   -12.619   -12.706    -0.087
   Fe(OH)3                2.718e-14   2.751e-14   -13.566   -13.560     0.005
   FeOH+2                 1.217e-15   5.472e-16   -14.915   -15.262    -0.347
   Fe(OH)4-               3.327e-17   2.724e-17   -16.478   -16.565    -0.087
   FeSO4+                 4.162e-18   3.408e-18   -17.381   -17.467    -0.087
   Fe(SO4)2-              3.627e-19   2.970e-19   -18.440   -18.527    -0.087
   Fe+3                   3.295e-19   7.805e-20   -18.482   -19.108    -0.625
   FeHSO4+2               1.868e-23   8.398e-24   -22.729   -23.076    -0.347
   Fe2(OH)2+4             1.971e-28   8.058e-30   -27.705   -29.094    -1.389
   Fe3(OH)4+5             4.894e-38   3.312e-40   -37.310   -39.480    -2.170
H(0)             9.217e-13
   H2                     4.608e-13   4.664e-13   -12.336   -12.331     0.005
O(0)             0.000e+00
   O2                     0.000e+00   0.000e+00   -67.724   -67.718     0.005
S(-2)            2.844e-11
   H2S                    2.461e-11   2.491e-11   -10.609   -10.604     0.005
   HS-                    3.829e-12   3.097e-12   -11.417   -11.509    -0.092
   S-2                    8.866e-19   4.065e-19   -18.052   -18.391    -0.339
   Fe(HS)2                1.926e-19   1.949e-19   -18.715   -18.710     0.005
   Fe(HS)3-               8.026e-29   6.572e-29   -28.096   -28.182    -0.087
S(6)             1.393e-02
   SO4-2                  8.728e-03   3.983e-03    -2.059    -2.400    -0.341
   CaSO4                  5.185e-03   5.248e-03    -2.285    -2.280     0.005
   FeSO4                  1.595e-05   1.615e-05    -4.797    -4.792     0.005
   HSO4-                  4.351e-07   3.563e-07    -6.361    -6.448    -0.087
   CaHSO4+                3.454e-08   2.829e-08    -7.462    -7.548    -0.087
   FeHSO4+                1.193e-10   9.766e-11    -9.923   -10.010    -0.087
   FeSO4+                 4.162e-18   3.408e-18   -17.381   -17.467    -0.087
   Fe(SO4)2-              3.627e-19   2.970e-19   -18.440   -18.527    -0.087
   FeHSO4+2               1.868e-23   8.398e-24   -22.729   -23.076    -0.347

------------------------------Saturation indices-------------------------------

	Phase               SI log IAP  log KT

	Anhydrite        -0.22   -4.58   -4.36  CaSO4
	Aragonite        -0.14   -8.48   -8.34  CaCO3
	Calcite           0.00   -8.48   -8.48  CaCO3
	CH4(g)          -11.16  -14.02   -2.86  CH4
	CO2(g)           -0.22   -1.69   -1.47  CO2
	Fe(OH)3(a)       -5.89   -1.00    4.89  Fe(OH)3
	FeS(ppt)         -6.20  -10.11   -3.92  FeS
	Goethite          0.00   -1.00   -1.00  FeOOH
	Gypsum           -0.00   -4.58   -4.58  CaSO4:2H2O
	H2(g)            -9.18  -12.33   -3.15  H2
	H2O(g)           -1.51   -0.00    1.51  H2O
	H2S(g)           -9.61  -10.60   -1.00  H2S
	Hematite          2.01   -2.00   -4.01  Fe2O3
	Mackinawite      -5.47  -10.11   -4.65  FeS
	Melanterite      -4.84   -7.05   -2.21  FeSO4:7H2O
	O2(g)           -64.83  -67.72   -2.89  O2
	Pyrite            0.00  -18.48  -18.48  FeS2
	Siderite         -0.05  -10.94  -10.89  FeCO3
	Sulfur           -6.30   -1.42    4.88  S

------------------
End of simulation.
------------------

------------------------------------
Reading input data for simulation 2.
------------------------------------

-----------
End of run.
-----------

