   Input file: ex6.cvode
  Output file: ex6.cvode.out
Database file: ../database/phreeqc.dat

------------------
Reading data base.
------------------

	SOLUTION_MASTER_SPECIES
	SOLUTION_SPECIES
	PHASES
	EXCHANGE_MASTER_SPECIES
	EXCHANGE_SPECIES
	SURFACE_MASTER_SPECIES
	SURFACE_SPECIES
	RATES
	END
------------------------------------
Reading input data for simulation 1.
------------------------------------

	DATABASE ../database/phreeqc.dat
	TITLE Example 6A.--React to phase boundaries.
	SOLUTION 1  PURE WATER
	            pH    7.0 charge
	          temp   25.0
	PHASES
	        Gibbsite
	                Al(OH)3 + 3 H+ = Al+3 + 3 H2O
	                log_k          8.049
	                delta_h        -22.792 kcal
	        Kaolinite
	                Al2Si2O5(OH)4 + 6 H+ = H2O + 2 H4SiO4 + 2 Al+3
	                log_k          5.708
	                delta_h        -35.306 kcal
	        K-mica
	                KAl3Si3O10(OH)2 + 10 H+ = 3 Al+3 + 3 H4SiO4 + K+
	                log_k          12.970
	                delta_h        -59.377 kcal
	        K-feldspar
	                KAlSi3O8 + 4 H2O + 4 H+ = Al+3 + 3 H4SiO4 + K+
	                log_k          0.875
	                delta_h        -12.467 kcal
	SELECTED_OUTPUT
	        file           ex6A-B.sel
	        activities     K+ H+ H4SiO4
	        si             Gibbsite Kaolinite K-mica K-feldspar
	        equilibrium_phases    Gibbsite Kaolinite K-mica K-feldspar
	END
-----
TITLE
-----

 Example 6A.--React to phase boundaries.

-------------------------------------------
Beginning of initial solution calculations.
-------------------------------------------

Initial solution 1.	PURE WATER

-----------------------------Solution composition------------------------------

	Elements           Molality       Moles

	Pure water     

----------------------------Description of solution----------------------------

                                       pH  =   7.000      Charge balance
                                       pe  =   4.000    
       Specific Conductance (uS/cm, 25 oC) = 0
                          Density (g/cm3)  =   0.99705
                        Activity of water  =   1.000
                           Ionic strength  =   1.001e-07
                       Mass of water (kg)  =   1.000e+00
                 Total alkalinity (eq/kg)  =   3.121e-18
                    Total carbon (mol/kg)  =   0.000e+00
                       Total CO2 (mol/kg)  =   0.000e+00
                      Temperature (deg C)  =  25.000
                  Electrical balance (eq)  =  -3.121e-18
 Percent error, 100*(Cat-|An|)/(Cat+|An|)  =  -0.00
                               Iterations  =   2
                                  Total H  = 1.110124e+02
                                  Total O  = 5.550622e+01

----------------------------Distribution of species----------------------------

                                                   Log       Log         Log 
   Species                 Molality    Activity  Molality  Activity     Gamma

   OH-                    1.001e-07   1.001e-07    -7.000    -7.000    -0.000
   H+                     1.001e-07   1.001e-07    -7.000    -7.000    -0.000
   H2O                    5.551e+01   1.000e+00     1.744    -0.000     0.000
H(0)             1.417e-25
   H2                     7.087e-26   7.087e-26   -25.150   -25.150     0.000
O(0)             0.000e+00
   O2                     0.000e+00   0.000e+00   -42.081   -42.081     0.000

------------------------------Saturation indices-------------------------------

	Phase               SI   log IAP  log KT

	H2(g)           -22.00    -25.15   -3.15  H2
	H2O(g)           -1.51     -0.00    1.51  H2O
	O2(g)           -39.19    -42.08   -2.89  O2


------------------
End of simulation.
------------------

------------------------------------
Reading input data for simulation 2.
------------------------------------

	TITLE Example 6A1.--Find amount of K-feldspar dissolved to 
	                    reach gibbsite saturation.
	USE solution 1
	EQUILIBRIUM_PHASES 1
	        Gibbsite        0.0     KAlSi3O8        10.0
	        Kaolinite       0.0     0.0
	        K-mica          0.0     0.0
	        K-feldspar      0.0     0.0
	END
-----
TITLE
-----

 Example 6A1.--Find amount of K-feldspar dissolved to 
                    reach gibbsite saturation.

-----------------------------------------
Beginning of batch-reaction calculations.
-----------------------------------------

Reaction step 1.

Using solution 1.	PURE WATER
Using pure phase assemblage 1.	

-------------------------------Phase assemblage--------------------------------

                                                      Moles in assemblage
Phase                SI   log IAP  log KT      Initial       Final       Delta

Gibbsite           0.00      8.05    8.05
	 KAlSi3O8           is reactant      1.000e+01   1.000e+01  -2.671e-08
K-feldspar       -14.68    -13.81    0.88    0.000e+00           0   0.000e+00
K-mica           -10.68      2.29   12.97    0.000e+00           0   0.000e+00
Kaolinite         -3.80      1.90    5.71    0.000e+00           0   0.000e+00

-----------------------------Solution composition------------------------------

	Elements           Molality       Moles

	Al                2.671e-08   2.671e-08
	K                 2.671e-08   2.671e-08
	Si                8.013e-08   8.013e-08

----------------------------Description of solution----------------------------

                                       pH  =   7.006      Charge balance
                                       pe  =  11.468      Adjusted to redox equilibrium
       Specific Conductance (uS/cm, 25 oC) = 0
                          Density (g/cm3)  =   0.99705
                        Activity of water  =   1.000
                           Ionic strength  =   1.262e-07
                       Mass of water (kg)  =   1.000e+00
                 Total alkalinity (eq/kg)  =   1.068e-07
                    Total carbon (mol/kg)  =   0.000e+00
                       Total CO2 (mol/kg)  =   0.000e+00
                      Temperature (deg C)  =  25.000
                  Electrical balance (eq)  =  -5.300e-17
 Percent error, 100*(Cat-|An|)/(Cat+|An|)  =  -0.00
                               Iterations  =   9
                                  Total H  = 1.110124e+02
                                  Total O  = 5.550622e+01

----------------------------Distribution of species----------------------------

                                                   Log       Log         Log 
   Species                 Molality    Activity  Molality  Activity     Gamma

   OH-                    1.016e-07   1.015e-07    -6.993    -6.993    -0.000
   H+                     9.865e-08   9.861e-08    -7.006    -7.006    -0.000
   H2O                    5.551e+01   1.000e+00     1.744    -0.000     0.000
Al               2.671e-08
   Al(OH)4-               2.455e-08   2.454e-08    -7.610    -7.610    -0.000
   Al(OH)3                1.284e-09   1.284e-09    -8.891    -8.891     0.000
   Al(OH)2+               8.597e-10   8.594e-10    -9.066    -9.066    -0.000
   AlOH+2                 1.083e-11   1.081e-11   -10.965   -10.966    -0.001
   Al+3                   1.077e-13   1.073e-13   -12.968   -12.969    -0.002
H(0)             0.000e+00
   H2                     0.000e+00   0.000e+00   -40.099   -40.099     0.000
K                2.671e-08
   K+                     2.671e-08   2.670e-08    -7.573    -7.574    -0.000
   KOH                    9.388e-16   9.388e-16   -15.027   -15.027     0.000
O(0)             1.314e-12
   O2                     6.572e-13   6.572e-13   -12.182   -12.182     0.000
Si               8.013e-08
   H4SiO4                 8.001e-08   8.001e-08    -7.097    -7.097     0.000
   H3SiO4-                1.197e-10   1.196e-10    -9.922    -9.922    -0.000
   H2SiO4-2               8.267e-17   8.253e-17   -16.083   -16.083    -0.001

------------------------------Saturation indices-------------------------------

	Phase               SI   log IAP  log KT

	Al(OH)3(a)       -2.75      8.05   10.80  Al(OH)3
	Chalcedony       -3.55     -7.10   -3.55  SiO2
	Gibbsite          0.00      8.05    8.05  Al(OH)3
	H2(g)           -36.95    -40.10   -3.15  H2
	H2O(g)           -1.51     -0.00    1.51  H2O
	K-feldspar      -14.68    -13.81    0.88  KAlSi3O8
	K-mica          -10.68      2.29   12.97  KAl3Si3O10(OH)2
	Kaolinite        -3.80      1.90    5.71  Al2Si2O5(OH)4
	O2(g)            -9.29    -12.18   -2.89  O2
	Quartz           -3.12     -7.10   -3.98  SiO2
	SiO2(a)          -4.39     -7.10   -2.71  SiO2


------------------
End of simulation.
------------------

------------------------------------
Reading input data for simulation 3.
------------------------------------

	TITLE Example 6A2.--Find amount of K-feldspar dissolved to 
	                    reach kaolinite saturation.
	USE solution 1
	EQUILIBRIUM_PHASES 1
	        Gibbsite        0.0     0.0
	        Kaolinite       0.0     KAlSi3O8        10.0
	        K-mica          0.0     0.0
	        K-feldspar      0.0     0.0
	END
-----
TITLE
-----

 Example 6A2.--Find amount of K-feldspar dissolved to 
                    reach kaolinite saturation.

-----------------------------------------
Beginning of batch-reaction calculations.
-----------------------------------------

Reaction step 1.

Using solution 1.	PURE WATER
Using pure phase assemblage 1.	

-------------------------------Phase assemblage--------------------------------

                                                      Moles in assemblage
Phase                SI   log IAP  log KT      Initial       Final       Delta

Gibbsite          -0.00      8.05    8.05    0.000e+00   1.782e-06   1.782e-06
K-feldspar        -5.86     -4.99    0.88    0.000e+00           0   0.000e+00
K-mica            -1.86     11.11   12.97    0.000e+00           0   0.000e+00
Kaolinite         -0.00      5.71    5.71
	 KAlSi3O8           is reactant      1.000e+01   1.000e+01  -2.179e-06

-----------------------------Solution composition------------------------------

	Elements           Molality       Moles

	Al                3.968e-07   3.968e-07
	K                 2.179e-06   2.179e-06
	Si                6.536e-06   6.536e-06

----------------------------Description of solution----------------------------

                                       pH  =   8.212      Charge balance
                                       pe  =   9.894      Adjusted to redox equilibrium
       Specific Conductance (uS/cm, 25 oC) = 0
                          Density (g/cm3)  =   0.99705
                        Activity of water  =   1.000
                           Ionic strength  =   2.185e-06
                       Mass of water (kg)  =   1.000e+00
                 Total alkalinity (eq/kg)  =   3.369e-06
                    Total carbon (mol/kg)  =   0.000e+00
                       Total CO2 (mol/kg)  =   0.000e+00
                      Temperature (deg C)  =  25.000
                  Electrical balance (eq)  =  -1.876e-15
 Percent error, 100*(Cat-|An|)/(Cat+|An|)  =  -0.00
                               Iterations  =  13
                                  Total H  = 1.110124e+02
                                  Total O  = 5.550623e+01

----------------------------Distribution of species----------------------------

                                                   Log       Log         Log 
   Species                 Molality    Activity  Molality  Activity     Gamma

   OH-                    1.636e-06   1.633e-06    -5.786    -5.787    -0.001
   H+                     6.141e-09   6.131e-09    -8.212    -8.212    -0.001
   H2O                    5.551e+01   1.000e+00     1.744    -0.000     0.000
Al               3.968e-07
   Al(OH)4-               3.955e-07   3.948e-07    -6.403    -6.404    -0.001
   Al(OH)3                1.284e-09   1.284e-09    -8.891    -8.891     0.000
   Al(OH)2+               5.352e-11   5.343e-11   -10.271   -10.272    -0.001
   AlOH+2                 4.208e-14   4.179e-14   -13.376   -13.379    -0.003
   Al+3                   2.620e-17   2.579e-17   -16.582   -16.588    -0.007
H(0)             8.674e-40
   H2                     4.337e-40   4.337e-40   -39.363   -39.363     0.000
K                2.179e-06
   K+                     2.179e-06   2.175e-06    -5.662    -5.663    -0.001
   KOH                    1.230e-12   1.230e-12   -11.910   -11.910     0.000
O(0)             4.433e-14
   O2                     2.216e-14   2.216e-14   -13.654   -13.654     0.000
Si               6.536e-06
   H4SiO4                 6.383e-06   6.383e-06    -5.195    -5.195     0.000
   H3SiO4-                1.538e-07   1.535e-07    -6.813    -6.814    -0.001
   H2SiO4-2               1.715e-12   1.703e-12   -11.766   -11.769    -0.003

------------------------------Saturation indices-------------------------------

	Phase               SI   log IAP  log KT

	Al(OH)3(a)       -2.75      8.05   10.80  Al(OH)3
	Chalcedony       -1.64     -5.20   -3.55  SiO2
	Gibbsite         -0.00      8.05    8.05  Al(OH)3
	H2(g)           -36.21    -39.36   -3.15  H2
	H2O(g)           -1.51     -0.00    1.51  H2O
	K-feldspar       -5.86     -4.99    0.88  KAlSi3O8
	K-mica           -1.86     11.11   12.97  KAl3Si3O10(OH)2
	Kaolinite        -0.00      5.71    5.71  Al2Si2O5(OH)4
	O2(g)           -10.76    -13.65   -2.89  O2
	Quartz           -1.21     -5.20   -3.98  SiO2
	SiO2(a)          -2.48     -5.20   -2.71  SiO2


------------------
End of simulation.
------------------

------------------------------------
Reading input data for simulation 4.
------------------------------------

	TITLE Example 6A3.--Find amount of K-feldspar dissolved to 
	                    reach K-mica saturation.
	USE solution 1
	EQUILIBRIUM_PHASES 1
	        Gibbsite        0.0     0.0
	        Kaolinite       0.0     0.0
	        K-mica          0.0     KAlSi3O8        10.0
	        K-feldspar      0.0     0.0
	END
-----
TITLE
-----

 Example 6A3.--Find amount of K-feldspar dissolved to 
                    reach K-mica saturation.

-----------------------------------------
Beginning of batch-reaction calculations.
-----------------------------------------

Reaction step 1.

Using solution 1.	PURE WATER
Using pure phase assemblage 1.	

-------------------------------Phase assemblage--------------------------------

                                                      Moles in assemblage
Phase                SI   log IAP  log KT      Initial       Final       Delta

Gibbsite          -0.73      7.32    8.05    0.000e+00           0   0.000e+00
K-feldspar        -2.55     -1.67    0.88    0.000e+00           0   0.000e+00
K-mica             0.00     12.97   12.97
	 KAlSi3O8           is reactant      1.000e+01   1.000e+01  -2.001e-05
Kaolinite          0.00      5.71    5.71    0.000e+00   9.715e-06   9.715e-06

-----------------------------Solution composition------------------------------

	Elements           Molality       Moles

	Al                5.851e-07   5.851e-07
	K                 2.001e-05   2.001e-05
	Si                4.062e-05   4.061e-05

----------------------------Description of solution----------------------------

                                       pH  =   9.109      Charge balance
                                       pe  =   9.063      Adjusted to redox equilibrium
       Specific Conductance (uS/cm, 25 oC) = 4
                          Density (g/cm3)  =   0.99705
                        Activity of water  =   1.000
                           Ionic strength  =   2.002e-05
                       Mass of water (kg)  =   1.000e+00
                 Total alkalinity (eq/kg)  =   2.177e-05
                    Total carbon (mol/kg)  =   0.000e+00
                       Total CO2 (mol/kg)  =   0.000e+00
                      Temperature (deg C)  =  25.000
                  Electrical balance (eq)  =   2.710e-15
 Percent error, 100*(Cat-|An|)/(Cat+|An|)  =   0.00
                               Iterations  =  13
                                  Total H  = 1.110124e+02
                                  Total O  = 5.550629e+01

----------------------------Distribution of species----------------------------

                                                   Log       Log         Log 
   Species                 Molality    Activity  Molality  Activity     Gamma

   OH-                    1.293e-05   1.286e-05    -4.888    -4.891    -0.002
   H+                     7.822e-10   7.782e-10    -9.107    -9.109    -0.002
   H2O                    5.551e+01   1.000e+00     1.744    -0.000     0.000
Al               5.851e-07
   Al(OH)4-               5.849e-07   5.818e-07    -6.233    -6.235    -0.002
   Al(OH)3                2.402e-10   2.402e-10    -9.619    -9.619     0.000
   Al(OH)2+               1.275e-12   1.269e-12   -11.894   -11.897    -0.002
   AlOH+2                 1.286e-16   1.260e-16   -15.891   -15.900    -0.009
   Al+3                   1.034e-20   9.870e-21   -19.985   -20.006    -0.020
H(0)             6.411e-40
   H2                     3.206e-40   3.206e-40   -39.494   -39.494     0.000
K                2.001e-05
   K+                     2.001e-05   1.991e-05    -4.699    -4.701    -0.002
   KOH                    8.871e-11   8.872e-11   -10.052   -10.052     0.000
O(0)             8.113e-14
   O2                     4.057e-14   4.057e-14   -13.392   -13.392     0.000
Si               4.062e-05
   H4SiO4                 3.412e-05   3.412e-05    -4.467    -4.467     0.000
   H3SiO4-                6.498e-06   6.464e-06    -5.187    -5.189    -0.002
   H2SiO4-2               5.770e-10   5.651e-10    -9.239    -9.248    -0.009

------------------------------Saturation indices-------------------------------

	Phase               SI   log IAP  log KT

	Al(OH)3(a)       -3.48      7.32   10.80  Al(OH)3
	Chalcedony       -0.92     -4.47   -3.55  SiO2
	Gibbsite         -0.73      7.32    8.05  Al(OH)3
	H2(g)           -36.34    -39.49   -3.15  H2
	H2O(g)           -1.51     -0.00    1.51  H2O
	K-feldspar       -2.55     -1.67    0.88  KAlSi3O8
	K-mica            0.00     12.97   12.97  KAl3Si3O10(OH)2
	Kaolinite         0.00      5.71    5.71  Al2Si2O5(OH)4
	O2(g)           -10.50    -13.39   -2.89  O2
	Quartz           -0.49     -4.47   -3.98  SiO2
	SiO2(a)          -1.76     -4.47   -2.71  SiO2


------------------
End of simulation.
------------------

------------------------------------
Reading input data for simulation 5.
------------------------------------

	TITLE Example 6A4.--Find amount of K-feldspar dissolved to 
	                    reach K-feldspar saturation.
	USE solution 1
	EQUILIBRIUM_PHASES 1
	        Gibbsite        0.0     0.0
	        Kaolinite       0.0     0.0
	        K-mica          0.0     0.0
	        K-feldspar      0.0     KAlSi3O8        10.0
	END
-----
TITLE
-----

 Example 6A4.--Find amount of K-feldspar dissolved to 
                    reach K-feldspar saturation.

-----------------------------------------
Beginning of batch-reaction calculations.
-----------------------------------------

Reaction step 1.

Using solution 1.	PURE WATER
Using pure phase assemblage 1.	

-------------------------------Phase assemblage--------------------------------

                                                      Moles in assemblage
Phase                SI   log IAP  log KT      Initial       Final       Delta

Gibbsite          -2.00      6.05    8.05    0.000e+00           0   0.000e+00
K-feldspar         0.00      0.88    0.88
	 KAlSi3O8           is reactant      1.000e+01   1.000e+01  -1.909e-04
K-mica             0.00     12.97   12.97    0.000e+00   6.361e-05   6.361e-05
Kaolinite         -0.72      4.99    5.71    0.000e+00           0   0.000e+00

-----------------------------Solution composition------------------------------

	Elements           Molality       Moles

	Al                5.990e-08   5.989e-08
	K                 1.273e-04   1.273e-04
	Si                3.818e-04   3.818e-04

----------------------------Description of solution----------------------------

                                       pH  =   9.389      Charge balance
                                       pe  =   8.683      Adjusted to redox equilibrium
       Specific Conductance (uS/cm, 25 oC) = 14
                          Density (g/cm3)  =   0.99705
                        Activity of water  =   1.000
                           Ionic strength  =   1.273e-04
                       Mass of water (kg)  =   1.000e+00
                 Total alkalinity (eq/kg)  =   1.275e-04
                    Total carbon (mol/kg)  =   0.000e+00
                       Total CO2 (mol/kg)  =   0.000e+00
                      Temperature (deg C)  =  25.000
                  Electrical balance (eq)  =  -2.515e-14
 Percent error, 100*(Cat-|An|)/(Cat+|An|)  =  -0.00
                               Iterations  =  16
                                  Total H  = 1.110123e+02
                                  Total O  = 5.550698e+01

----------------------------Distribution of species----------------------------

                                                   Log       Log         Log 
   Species                 Molality    Activity  Molality  Activity     Gamma

   OH-                    2.486e-05   2.453e-05    -4.605    -4.610    -0.006
   H+                     4.133e-10   4.080e-10    -9.384    -9.389    -0.006
   H2O                    5.551e+01   1.000e+00     1.744    -0.000     0.000
Al               5.990e-08
   Al(OH)4-               5.988e-08   5.911e-08    -7.223    -7.228    -0.006
   Al(OH)3                1.280e-11   1.280e-11   -10.893   -10.893     0.000
   Al(OH)2+               3.590e-14   3.544e-14   -13.445   -13.451    -0.006
   AlOH+2                 1.944e-18   1.845e-18   -17.711   -17.734    -0.023
   Al+3                   8.505e-23   7.579e-23   -22.070   -22.120    -0.050
H(0)             1.013e-39
   H2                     5.064e-40   5.064e-40   -39.296   -39.295     0.000
K                1.273e-04
   K+                     1.273e-04   1.256e-04    -3.895    -3.901    -0.006
   KOH                    1.067e-09   1.067e-09    -8.972    -8.972     0.000
O(0)             3.251e-14
   O2                     1.625e-14   1.625e-14   -13.789   -13.789     0.000
Si               3.818e-04
   H4SiO4                 2.795e-04   2.795e-04    -3.554    -3.554     0.000
   H3SiO4-                1.023e-04   1.010e-04    -3.990    -3.996    -0.006
   H2SiO4-2               1.774e-08   1.684e-08    -7.751    -7.774    -0.023

------------------------------Saturation indices-------------------------------

	Phase               SI   log IAP  log KT

	Al(OH)3(a)       -4.75      6.05   10.80  Al(OH)3
	Chalcedony       -0.00     -3.55   -3.55  SiO2
	Gibbsite         -2.00      6.05    8.05  Al(OH)3
	H2(g)           -36.15    -39.30   -3.15  H2
	H2O(g)           -1.51     -0.00    1.51  H2O
	K-feldspar        0.00      0.88    0.88  KAlSi3O8
	K-mica            0.00     12.97   12.97  KAl3Si3O10(OH)2
	Kaolinite        -0.72      4.99    5.71  Al2Si2O5(OH)4
	O2(g)           -10.90    -13.79   -2.89  O2
	Quartz            0.43     -3.55   -3.98  SiO2
	SiO2(a)          -0.84     -3.55   -2.71  SiO2


------------------
End of simulation.
------------------

------------------------------------
Reading input data for simulation 6.
------------------------------------

	TITLE Example 6A5.--Find point with kaolinite present, 
	                    but no gibbsite.
	USE solution 1
	EQUILIBRIUM_PHASES 1
	        Gibbsite        0.0     KAlSi3O8        10.0
	        Kaolinite       0.0     1.0
	END
-----
TITLE
-----

 Example 6A5.--Find point with kaolinite present, 
                    but no gibbsite.

-----------------------------------------
Beginning of batch-reaction calculations.
-----------------------------------------

Reaction step 1.

Using solution 1.	PURE WATER
Using pure phase assemblage 1.	

-------------------------------Phase assemblage--------------------------------

                                                      Moles in assemblage
Phase                SI   log IAP  log KT      Initial       Final       Delta

Gibbsite          -0.00      8.05    8.05
	 KAlSi3O8           is reactant      1.000e+01   1.000e+01  -3.023e-06
Kaolinite         -0.00      5.71    5.71    1.000e+00   1.000e+00   1.237e-06

-----------------------------Solution composition------------------------------

	Elements           Molality       Moles

	Al                5.493e-07   5.493e-07
	K                 3.023e-06   3.023e-06
	Si                6.596e-06   6.596e-06

----------------------------Description of solution----------------------------

                                       pH  =   8.354      Charge balance
                                       pe  =   9.786      Adjusted to redox equilibrium
       Specific Conductance (uS/cm, 25 oC) = 0
                          Density (g/cm3)  =   0.99705
                        Activity of water  =   1.000
                           Ionic strength  =   3.028e-06
                       Mass of water (kg)  =   1.000e+00
                 Total alkalinity (eq/kg)  =   4.671e-06
                    Total carbon (mol/kg)  =   0.000e+00
                       Total CO2 (mol/kg)  =   0.000e+00
                      Temperature (deg C)  =  25.000
                  Electrical balance (eq)  =  -3.000e-18
 Percent error, 100*(Cat-|An|)/(Cat+|An|)  =  -0.00
                               Iterations  =  13
                                  Total H  = 1.110124e+02
                                  Total O  = 5.550623e+01

----------------------------Distribution of species----------------------------

                                                   Log       Log         Log 
   Species                 Molality    Activity  Molality  Activity     Gamma

   OH-                    2.267e-06   2.262e-06    -5.645    -5.646    -0.001
   H+                     4.435e-09   4.426e-09    -8.353    -8.354    -0.001
   H2O                    5.551e+01   1.000e+00     1.744    -0.000     0.000
Al               5.493e-07
   Al(OH)4-               5.480e-07   5.469e-07    -6.261    -6.262    -0.001
   Al(OH)3                1.284e-09   1.284e-09    -8.891    -8.891     0.000
   Al(OH)2+               3.865e-11   3.857e-11   -10.413   -10.414    -0.001
   AlOH+2                 2.196e-14   2.178e-14   -13.658   -13.662    -0.004
   Al+3                   9.882e-18   9.704e-18   -17.005   -17.013    -0.008
H(0)             7.444e-40
   H2                     3.722e-40   3.722e-40   -39.429   -39.429     0.000
K                3.023e-06
   K+                     3.023e-06   3.017e-06    -5.520    -5.520    -0.001
   KOH                    2.364e-12   2.364e-12   -11.626   -11.626     0.000
O(0)             6.019e-14
   O2                     3.009e-14   3.009e-14   -13.522   -13.522     0.000
Si               6.596e-06
   H4SiO4                 6.383e-06   6.383e-06    -5.195    -5.195     0.000
   H3SiO4-                2.131e-07   2.127e-07    -6.671    -6.672    -0.001
   H2SiO4-2               3.295e-12   3.269e-12   -11.482   -11.486    -0.004

------------------------------Saturation indices-------------------------------

	Phase               SI   log IAP  log KT

	Al(OH)3(a)       -2.75      8.05   10.80  Al(OH)3
	Chalcedony       -1.64     -5.20   -3.55  SiO2
	Gibbsite         -0.00      8.05    8.05  Al(OH)3
	H2(g)           -36.28    -39.43   -3.15  H2
	H2O(g)           -1.51     -0.00    1.51  H2O
	K-feldspar       -5.58     -4.70    0.88  KAlSi3O8
	K-mica           -1.57     11.40   12.97  KAl3Si3O10(OH)2
	Kaolinite        -0.00      5.71    5.71  Al2Si2O5(OH)4
	O2(g)           -10.63    -13.52   -2.89  O2
	Quartz           -1.21     -5.20   -3.98  SiO2
	SiO2(a)          -2.48     -5.20   -2.71  SiO2


------------------
End of simulation.
------------------

------------------------------------
Reading input data for simulation 7.
------------------------------------

	TITLE Example 6A6.--Find point with K-mica present, 
	                    but no kaolinite
	USE solution 1
	EQUILIBRIUM_PHASES 1
	        Kaolinite       0.0     KAlSi3O8        10.0
	        K-mica          0.0     1.0
	END
-----
TITLE
-----

 Example 6A6.--Find point with K-mica present, 
                    but no kaolinite

-----------------------------------------
Beginning of batch-reaction calculations.
-----------------------------------------

Reaction step 1.

Using solution 1.	PURE WATER
Using pure phase assemblage 1.	

-------------------------------Phase assemblage--------------------------------

                                                      Moles in assemblage
Phase                SI   log IAP  log KT      Initial       Final       Delta

K-mica            -0.00     12.97   12.97    1.000e+00   1.000e+00   1.079e-05
Kaolinite         -0.00      5.71    5.71
	 KAlSi3O8           is reactant      1.000e+01   1.000e+01  -3.268e-05

-----------------------------Solution composition------------------------------

	Elements           Molality       Moles

	Al                3.263e-07   3.263e-07
	K                 2.190e-05   2.190e-05
	Si                6.569e-05   6.569e-05

----------------------------Description of solution----------------------------

                                       pH  =   9.070      Charge balance
                                       pe  =   8.836      Adjusted to redox equilibrium
       Specific Conductance (uS/cm, 25 oC) = 3
                          Density (g/cm3)  =   0.99705
                        Activity of water  =   1.000
                           Ionic strength  =   2.190e-05
                       Mass of water (kg)  =   1.000e+00
                 Total alkalinity (eq/kg)  =   2.288e-05
                    Total carbon (mol/kg)  =   0.000e+00
                       Total CO2 (mol/kg)  =   0.000e+00
                      Temperature (deg C)  =  25.000
                  Electrical balance (eq)  =  -3.107e-18
 Percent error, 100*(Cat-|An|)/(Cat+|An|)  =  -0.00
                               Iterations  =  13
                                  Total H  = 1.110124e+02
                                  Total O  = 5.550635e+01

----------------------------Distribution of species----------------------------

                                                   Log       Log         Log 
   Species                 Molality    Activity  Molality  Activity     Gamma

   OH-                    1.183e-05   1.176e-05    -4.927    -4.930    -0.002
   H+                     8.558e-10   8.512e-10    -9.068    -9.070    -0.002
   H2O                    5.551e+01   1.000e+00     1.744    -0.000     0.000
Al               3.263e-07
   Al(OH)4-               3.262e-07   3.244e-07    -6.487    -6.489    -0.002
   Al(OH)3                1.465e-10   1.465e-10    -9.834    -9.834     0.000
   Al(OH)2+               8.509e-13   8.463e-13   -12.070   -12.072    -0.002
   AlOH+2                 9.393e-17   9.191e-17   -16.027   -16.037    -0.009
   Al+3                   8.269e-21   7.876e-21   -20.083   -20.104    -0.021
H(0)             2.179e-39
   H2                     1.089e-39   1.089e-39   -38.963   -38.963     0.000
K                2.190e-05
   K+                     2.190e-05   2.178e-05    -4.660    -4.662    -0.002
   KOH                    8.871e-11   8.872e-11   -10.052   -10.052     0.000
O(0)             7.024e-15
   O2                     3.512e-15   3.512e-15   -14.454   -14.454     0.000
Si               6.569e-05
   H4SiO4                 5.595e-05   5.595e-05    -4.252    -4.252     0.000
   H3SiO4-                9.745e-06   9.692e-06    -5.011    -5.014    -0.002
   H2SiO4-2               7.916e-10   7.745e-10    -9.101    -9.111    -0.009

------------------------------Saturation indices-------------------------------

	Phase               SI   log IAP  log KT

	Al(OH)3(a)       -3.69      7.11   10.80  Al(OH)3
	Chalcedony       -0.70     -4.25   -3.55  SiO2
	Gibbsite         -0.94      7.11    8.05  Al(OH)3
	H2(g)           -35.81    -38.96   -3.15  H2
	H2O(g)           -1.51     -0.00    1.51  H2O
	K-feldspar       -2.12     -1.24    0.88  KAlSi3O8
	K-mica           -0.00     12.97   12.97  KAl3Si3O10(OH)2
	Kaolinite        -0.00      5.71    5.71  Al2Si2O5(OH)4
	O2(g)           -11.56    -14.45   -2.89  O2
	Quartz           -0.27     -4.25   -3.98  SiO2
	SiO2(a)          -1.54     -4.25   -2.71  SiO2


------------------
End of simulation.
------------------

------------------------------------
Reading input data for simulation 8.
------------------------------------

	TITLE Example 6B.--Path between phase boundaries.
	USE solution 1
	EQUILIBRIUM_PHASES 1
	        Kaolinite       0.0     0.0
	        Gibbsite        0.0     0.0
	        K-mica          0.0     0.0
	        K-feldspar      0.0     0.0
	REACTION 1
	        K-feldspar      1.0
	        0.04 0.08 0.16 0.32 0.64 1.0 2.0 4.0 
	        8.0 16.0 32.0 64.0 100 200 umol
	END
-----
TITLE
-----

 Example 6B.--Path between phase boundaries.

-----------------------------------------
Beginning of batch-reaction calculations.
-----------------------------------------

Reaction step 1.

Using solution 1.	PURE WATER
Using pure phase assemblage 1.	
Using reaction 1.	

Reaction 1.	Irreversible reaction defined in simulation 8.

	  4.000e-08 moles of the following reaction have been added:

	                 Relative
	Reactant            moles

	K-feldspar           1.00000

	                 Relative
	Element             moles
	Al                   1.00000
	K                    1.00000
	O                    8.00000
	Si                   3.00000

-------------------------------Phase assemblage--------------------------------

                                                      Moles in assemblage
Phase                SI   log IAP  log KT      Initial       Final       Delta

Gibbsite           0.00      8.05    8.05    0.000e+00   1.187e-08   1.187e-08
K-feldspar       -13.96    -13.08    0.88    0.000e+00           0   0.000e+00
K-mica            -9.95      3.02   12.97    0.000e+00           0   0.000e+00
Kaolinite         -3.45      2.25    5.71    0.000e+00           0   0.000e+00

-----------------------------Solution composition------------------------------

	Elements           Molality       Moles

	Al                2.813e-08   2.813e-08
	K                 4.000e-08   4.000e-08
	Si                1.200e-07   1.200e-07

----------------------------Description of solution----------------------------

                                       pH  =   7.031      Charge balance
                                       pe  =  11.457      Adjusted to redox equilibrium
       Specific Conductance (uS/cm, 25 oC) = 0
                          Density (g/cm3)  =   0.99705
                        Activity of water  =   1.000
                           Ionic strength  =   1.339e-07
                       Mass of water (kg)  =   1.000e+00
                 Total alkalinity (eq/kg)  =   1.244e-07
                    Total carbon (mol/kg)  =   0.000e+00
                       Total CO2 (mol/kg)  =   0.000e+00
                      Temperature (deg C)  =  25.000
                  Electrical balance (eq)  =  -2.760e-18
 Percent error, 100*(Cat-|An|)/(Cat+|An|)  =  -0.00
                               Iterations  =   9
                                  Total H  = 1.110124e+02
                                  Total O  = 5.550622e+01

----------------------------Distribution of species----------------------------

                                                   Log       Log         Log 
   Species                 Molality    Activity  Molality  Activity     Gamma

   OH-                    1.077e-07   1.076e-07    -6.968    -6.968    -0.000
   H+                     9.306e-08   9.302e-08    -7.031    -7.031    -0.000
   H2O                    5.551e+01   1.000e+00     1.744    -0.000     0.000
Al               2.813e-08
   Al(OH)4-               2.603e-08   2.602e-08    -7.585    -7.585    -0.000
   Al(OH)3                1.284e-09   1.284e-09    -8.891    -8.891     0.000
   Al(OH)2+               8.110e-10   8.107e-10    -9.091    -9.091    -0.000
   AlOH+2                 9.638e-12   9.621e-12   -11.016   -11.017    -0.001
   Al+3                   9.044e-14   9.009e-14   -13.044   -13.045    -0.002
H(0)             0.000e+00
   H2                     0.000e+00   0.000e+00   -40.127   -40.127     0.000
K                4.000e-08
   K+                     4.000e-08   3.998e-08    -7.398    -7.398    -0.000
   KOH                    1.490e-15   1.490e-15   -14.827   -14.827     0.000
O(0)             1.494e-12
   O2                     7.470e-13   7.470e-13   -12.127   -12.127     0.000
Si               1.200e-07
   H4SiO4                 1.198e-07   1.198e-07    -6.922    -6.922     0.000
   H3SiO4-                1.900e-10   1.899e-10    -9.721    -9.721    -0.000
   H2SiO4-2               1.391e-16   1.389e-16   -15.857   -15.857    -0.001

------------------------------Saturation indices-------------------------------

	Phase               SI   log IAP  log KT

	Al(OH)3(a)       -2.75      8.05   10.80  Al(OH)3
	Chalcedony       -3.37     -6.92   -3.55  SiO2
	Gibbsite          0.00      8.05    8.05  Al(OH)3
	H2(g)           -36.98    -40.13   -3.15  H2
	H2O(g)           -1.51     -0.00    1.51  H2O
	K-feldspar      -13.96    -13.08    0.88  KAlSi3O8
	K-mica           -9.95      3.02   12.97  KAl3Si3O10(OH)2
	Kaolinite        -3.45      2.25    5.71  Al2Si2O5(OH)4
	O2(g)            -9.23    -12.13   -2.89  O2
	Quartz           -2.94     -6.92   -3.98  SiO2
	SiO2(a)          -4.21     -6.92   -2.71  SiO2


Reaction step 2.

Using solution 1.	PURE WATER
Using pure phase assemblage 1.	
Using reaction 1.	

Reaction 1.	Irreversible reaction defined in simulation 8.

	  8.000e-08 moles of the following reaction have been added:

	                 Relative
	Reactant            moles

	K-feldspar           1.00000

	                 Relative
	Element             moles
	Al                   1.00000
	K                    1.00000
	O                    8.00000
	Si                   3.00000

-------------------------------Phase assemblage--------------------------------

                                                      Moles in assemblage
Phase                SI   log IAP  log KT      Initial       Final       Delta

Gibbsite           0.00      8.05    8.05    0.000e+00   4.713e-08   4.713e-08
K-feldspar       -12.68    -11.80    0.88    0.000e+00           0   0.000e+00
K-mica            -8.68      4.29   12.97    0.000e+00           0   0.000e+00
Kaolinite         -2.85      2.86    5.71    0.000e+00           0   0.000e+00

-----------------------------Solution composition------------------------------

	Elements           Molality       Moles

	Al                3.287e-08   3.287e-08
	K                 8.000e-08   8.000e-08
	Si                2.400e-07   2.400e-07

----------------------------Description of solution----------------------------

                                       pH  =   7.106      Charge balance
                                       pe  =  11.288      Adjusted to redox equilibrium
       Specific Conductance (uS/cm, 25 oC) = 0
                          Density (g/cm3)  =   0.99705
                        Activity of water  =   1.000
                           Ionic strength  =   1.591e-07
                       Mass of water (kg)  =   1.000e+00
                 Total alkalinity (eq/kg)  =   1.786e-07
                    Total carbon (mol/kg)  =   0.000e+00
                       Total CO2 (mol/kg)  =   0.000e+00
                      Temperature (deg C)  =  25.000
                  Electrical balance (eq)  =  -3.120e-18
 Percent error, 100*(Cat-|An|)/(Cat+|An|)  =  -0.00
                               Iterations  =  10
                                  Total H  = 1.110124e+02
                                  Total O  = 5.550622e+01

----------------------------Distribution of species----------------------------

                                                   Log       Log         Log 
   Species                 Molality    Activity  Molality  Activity     Gamma

   OH-                    1.278e-07   1.277e-07    -6.894    -6.894    -0.000
   H+                     7.842e-08   7.838e-08    -7.106    -7.106    -0.000
   H2O                    5.551e+01   1.000e+00     1.744    -0.000     0.000
Al               3.287e-08
   Al(OH)4-               3.089e-08   3.088e-08    -7.510    -7.510    -0.000
   Al(OH)3                1.284e-09   1.284e-09    -8.891    -8.891     0.000
   Al(OH)2+               6.834e-10   6.831e-10    -9.165    -9.166    -0.000
   AlOH+2                 6.845e-12   6.832e-12   -11.165   -11.165    -0.001
   Al+3                   5.414e-14   5.391e-14   -13.267   -13.268    -0.002
H(0)             2.308e-40
   H2                     1.154e-40   1.154e-40   -39.938   -39.938     0.000
K                8.000e-08
   K+                     8.000e-08   7.996e-08    -7.097    -7.097    -0.000
   KOH                    3.537e-15   3.537e-15   -14.451   -14.451     0.000
O(0)             6.262e-13
   O2                     3.131e-13   3.131e-13   -12.504   -12.504     0.000
Si               2.400e-07
   H4SiO4                 2.395e-07   2.395e-07    -6.621    -6.621     0.000
   H3SiO4-                4.508e-10   4.506e-10    -9.346    -9.346    -0.000
   H2SiO4-2               3.918e-16   3.911e-16   -15.407   -15.408    -0.001

------------------------------Saturation indices-------------------------------

	Phase               SI   log IAP  log KT

	Al(OH)3(a)       -2.75      8.05   10.80  Al(OH)3
	Chalcedony       -3.07     -6.62   -3.55  SiO2
	Gibbsite          0.00      8.05    8.05  Al(OH)3
	H2(g)           -36.79    -39.94   -3.15  H2
	H2O(g)           -1.51     -0.00    1.51  H2O
	K-feldspar      -12.68    -11.80    0.88  KAlSi3O8
	K-mica           -8.68      4.29   12.97  KAl3Si3O10(OH)2
	Kaolinite        -2.85      2.86    5.71  Al2Si2O5(OH)4
	O2(g)            -9.61    -12.50   -2.89  O2
	Quartz           -2.64     -6.62   -3.98  SiO2
	SiO2(a)          -3.91     -6.62   -2.71  SiO2


Reaction step 3.

Using solution 1.	PURE WATER
Using pure phase assemblage 1.	
Using reaction 1.	

Reaction 1.	Irreversible reaction defined in simulation 8.

	  1.600e-07 moles of the following reaction have been added:

	                 Relative
	Reactant            moles

	K-feldspar           1.00000

	                 Relative
	Element             moles
	Al                   1.00000
	K                    1.00000
	O                    8.00000
	Si                   3.00000

-------------------------------Phase assemblage--------------------------------

                                                      Moles in assemblage
Phase                SI   log IAP  log KT      Initial       Final       Delta

Gibbsite          -0.00      8.05    8.05    0.000e+00   1.160e-07   1.160e-07
K-feldspar       -11.34    -10.47    0.88    0.000e+00           0   0.000e+00
K-mica            -7.34      5.63   12.97    0.000e+00           0   0.000e+00
Kaolinite         -2.25      3.46    5.71    0.000e+00           0   0.000e+00

-----------------------------Solution composition------------------------------

	Elements           Molality       Moles

	Al                4.398e-08   4.398e-08
	K                 1.600e-07   1.600e-07
	Si                4.800e-07   4.800e-07

----------------------------Description of solution----------------------------

                                       pH  =   7.241      Charge balance
                                       pe  =  11.241      Adjusted to redox equilibrium
       Specific Conductance (uS/cm, 25 oC) = 0
                          Density (g/cm3)  =   0.99705
                        Activity of water  =   1.000
                           Ionic strength  =   2.179e-07
                       Mass of water (kg)  =   1.000e+00
                 Total alkalinity (eq/kg)  =   2.919e-07
                    Total carbon (mol/kg)  =   0.000e+00
                       Total CO2 (mol/kg)  =   0.000e+00
                      Temperature (deg C)  =  25.000
                  Electrical balance (eq)  =  -3.322e-18
 Percent error, 100*(Cat-|An|)/(Cat+|An|)  =  -0.00
                               Iterations  =  10
                                  Total H  = 1.110124e+02
                                  Total O  = 5.550622e+01

----------------------------Distribution of species----------------------------

                                                   Log       Log         Log 
   Species                 Molality    Activity  Molality  Activity     Gamma

   OH-                    1.745e-07   1.744e-07    -6.758    -6.758    -0.000
   H+                     5.743e-08   5.740e-08    -7.241    -7.241    -0.000
   H2O                    5.551e+01   1.000e+00     1.744    -0.000     0.000
Al               4.398e-08
   Al(OH)4-               4.219e-08   4.217e-08    -7.375    -7.375    -0.000
   Al(OH)3                1.284e-09   1.284e-09    -8.891    -8.891     0.000
   Al(OH)2+               5.005e-10   5.002e-10    -9.301    -9.301    -0.000
   AlOH+2                 3.671e-12   3.663e-12   -11.435   -11.436    -0.001
   Al+3                   2.127e-14   2.117e-14   -13.672   -13.674    -0.002
H(0)             0.000e+00
   H2                     0.000e+00   0.000e+00   -40.113   -40.113     0.000
K                1.600e-07
   K+                     1.600e-07   1.599e-07    -6.796    -6.796    -0.000
   KOH                    9.661e-15   9.661e-15   -14.015   -14.015     0.000
O(0)             1.405e-12
   O2                     7.025e-13   7.025e-13   -12.153   -12.153     0.000
Si               4.800e-07
   H4SiO4                 4.788e-07   4.788e-07    -6.320    -6.320     0.000
   H3SiO4-                1.231e-09   1.230e-09    -8.910    -8.910    -0.000
   H2SiO4-2               1.461e-15   1.458e-15   -14.835   -14.836    -0.001

------------------------------Saturation indices-------------------------------

	Phase               SI   log IAP  log KT

	Al(OH)3(a)       -2.75      8.05   10.80  Al(OH)3
	Chalcedony       -2.77     -6.32   -3.55  SiO2
	Gibbsite         -0.00      8.05    8.05  Al(OH)3
	H2(g)           -36.96    -40.11   -3.15  H2
	H2O(g)           -1.51     -0.00    1.51  H2O
	K-feldspar      -11.34    -10.47    0.88  KAlSi3O8
	K-mica           -7.34      5.63   12.97  KAl3Si3O10(OH)2
	Kaolinite        -2.25      3.46    5.71  Al2Si2O5(OH)4
	O2(g)            -9.26    -12.15   -2.89  O2
	Quartz           -2.34     -6.32   -3.98  SiO2
	SiO2(a)          -3.61     -6.32   -2.71  SiO2


Reaction step 4.

Using solution 1.	PURE WATER
Using pure phase assemblage 1.	
Using reaction 1.	

Reaction 1.	Irreversible reaction defined in simulation 8.

	  3.200e-07 moles of the following reaction have been added:

	                 Relative
	Reactant            moles

	K-feldspar           1.00000

	                 Relative
	Element             moles
	Al                   1.00000
	K                    1.00000
	O                    8.00000
	Si                   3.00000

-------------------------------Phase assemblage--------------------------------

                                                      Moles in assemblage
Phase                SI   log IAP  log KT      Initial       Final       Delta

Gibbsite          -0.00      8.05    8.05    0.000e+00   2.499e-07   2.499e-07
K-feldspar        -9.93     -9.05    0.88    0.000e+00           0   0.000e+00
K-mica            -5.93      7.04   12.97    0.000e+00           0   0.000e+00
Kaolinite         -1.65      4.06    5.71    0.000e+00           0   0.000e+00

-----------------------------Solution composition------------------------------

	Elements           Molality       Moles

	Al                7.007e-08   7.007e-08
	K                 3.200e-07   3.200e-07
	Si                9.600e-07   9.600e-07

----------------------------Description of solution----------------------------

                                       pH  =   7.451      Charge balance
                                       pe  =  11.188      Adjusted to redox equilibrium
       Specific Conductance (uS/cm, 25 oC) = 0
                          Density (g/cm3)  =   0.99705
                        Activity of water  =   1.000
                           Ionic strength  =   3.557e-07
                       Mass of water (kg)  =   1.000e+00
                 Total alkalinity (eq/kg)  =   5.302e-07
                    Total carbon (mol/kg)  =   0.000e+00
                       Total CO2 (mol/kg)  =   0.000e+00
                      Temperature (deg C)  =  25.000
                  Electrical balance (eq)  =  -1.281e-15
 Percent error, 100*(Cat-|An|)/(Cat+|An|)  =  -0.00
                               Iterations  =  10
                                  Total H  = 1.110124e+02
                                  Total O  = 5.550622e+01

----------------------------Distribution of species----------------------------

                                                   Log       Log         Log 
   Species                 Molality    Activity  Molality  Activity     Gamma

   OH-                    2.832e-07   2.830e-07    -6.548    -6.548    -0.000
   H+                     3.539e-08   3.537e-08    -7.451    -7.451    -0.000
   H2O                    5.551e+01   1.000e+00     1.744    -0.000     0.000
Al               7.007e-08
   Al(OH)4-               6.848e-08   6.843e-08    -7.164    -7.165    -0.000
   Al(OH)3                1.284e-09   1.284e-09    -8.891    -8.891     0.000
   Al(OH)2+               3.085e-10   3.082e-10    -9.511    -9.511    -0.000
   AlOH+2                 1.395e-12   1.391e-12   -11.855   -11.857    -0.001
   Al+3                   4.984e-15   4.953e-15   -14.302   -14.305    -0.003
H(0)             0.000e+00
   H2                     0.000e+00   0.000e+00   -40.429   -40.429     0.000
K                3.200e-07
   K+                     3.200e-07   3.198e-07    -6.495    -6.495    -0.000
   KOH                    3.135e-14   3.135e-14   -13.504   -13.504     0.000
O(0)             6.000e-12
   O2                     3.000e-12   3.000e-12   -11.523   -11.523     0.000
Si               9.600e-07
   H4SiO4                 9.560e-07   9.560e-07    -6.020    -6.020     0.000
   H3SiO4-                3.988e-09   3.986e-09    -8.399    -8.400    -0.000
   H2SiO4-2               7.687e-15   7.665e-15   -14.114   -14.115    -0.001

------------------------------Saturation indices-------------------------------

	Phase               SI   log IAP  log KT

	Al(OH)3(a)       -2.75      8.05   10.80  Al(OH)3
	Chalcedony       -2.47     -6.02   -3.55  SiO2
	Gibbsite         -0.00      8.05    8.05  Al(OH)3
	H2(g)           -37.28    -40.43   -3.15  H2
	H2O(g)           -1.51     -0.00    1.51  H2O
	K-feldspar       -9.93     -9.05    0.88  KAlSi3O8
	K-mica           -5.93      7.04   12.97  KAl3Si3O10(OH)2
	Kaolinite        -1.65      4.06    5.71  Al2Si2O5(OH)4
	O2(g)            -8.63    -11.52   -2.89  O2
	Quartz           -2.04     -6.02   -3.98  SiO2
	SiO2(a)          -3.31     -6.02   -2.71  SiO2


Reaction step 5.

Using solution 1.	PURE WATER
Using pure phase assemblage 1.	
Using reaction 1.	

Reaction 1.	Irreversible reaction defined in simulation 8.

	  6.400e-07 moles of the following reaction have been added:

	                 Relative
	Reactant            moles

	K-feldspar           1.00000

	                 Relative
	Element             moles
	Al                   1.00000
	K                    1.00000
	O                    8.00000
	Si                   3.00000

-------------------------------Phase assemblage--------------------------------

                                                      Moles in assemblage
Phase                SI   log IAP  log KT      Initial       Final       Delta

Gibbsite          -0.00      8.05    8.05    0.000e+00   5.130e-07   5.130e-07
K-feldspar        -8.47     -7.59    0.88    0.000e+00           0   0.000e+00
K-mica            -4.46      8.51   12.97    0.000e+00           0   0.000e+00
Kaolinite         -1.05      4.66    5.71    0.000e+00           0   0.000e+00

-----------------------------Solution composition------------------------------

	Elements           Molality       Moles

	Al                1.270e-07   1.270e-07
	K                 6.400e-07   6.400e-07
	Si                1.920e-06   1.920e-06

----------------------------Description of solution----------------------------

                                       pH  =   7.715      Charge balance
                                       pe  =  10.994      Adjusted to redox equilibrium
       Specific Conductance (uS/cm, 25 oC) = 0
                          Density (g/cm3)  =   0.99705
                        Activity of water  =   1.000
                           Ionic strength  =   6.595e-07
                       Mass of water (kg)  =   1.000e+00
                 Total alkalinity (eq/kg)  =   1.021e-06
                    Total carbon (mol/kg)  =   0.000e+00
                       Total CO2 (mol/kg)  =   0.000e+00
                      Temperature (deg C)  =  25.000
                  Electrical balance (eq)  =  -5.096e-15
 Percent error, 100*(Cat-|An|)/(Cat+|An|)  =  -0.00
                               Iterations  =  10
                                  Total H  = 1.110124e+02
                                  Total O  = 5.550622e+01

----------------------------Distribution of species----------------------------

                                                   Log       Log         Log 
   Species                 Molality    Activity  Molality  Activity     Gamma

   OH-                    5.193e-07   5.189e-07    -6.285    -6.285    -0.000
   H+                     1.931e-08   1.929e-08    -7.714    -7.715    -0.000
   H2O                    5.551e+01   1.000e+00     1.744    -0.000     0.000
Al               1.270e-07
   Al(OH)4-               1.256e-07   1.254e-07    -6.901    -6.902    -0.000
   Al(OH)3                1.284e-09   1.284e-09    -8.891    -8.891     0.000
   Al(OH)2+               1.683e-10   1.681e-10    -9.774    -9.774    -0.000
   AlOH+2                 4.155e-13   4.139e-13   -12.381   -12.383    -0.002
   Al+3                   8.109e-16   8.040e-16   -15.091   -15.095    -0.004
H(0)             0.000e+00
   H2                     0.000e+00   0.000e+00   -40.567   -40.567     0.000
K                6.400e-07
   K+                     6.400e-07   6.394e-07    -6.194    -6.194    -0.000
   KOH                    1.149e-13   1.149e-13   -12.940   -12.940     0.000
O(0)             1.135e-11
   O2                     5.673e-12   5.673e-12   -11.246   -11.246     0.000
Si               1.920e-06
   H4SiO4                 1.905e-06   1.905e-06    -5.720    -5.720     0.000
   H3SiO4-                1.458e-08   1.456e-08    -7.836    -7.837    -0.000
   H2SiO4-2               5.153e-14   5.134e-14   -13.288   -13.290    -0.002

------------------------------Saturation indices-------------------------------

	Phase               SI   log IAP  log KT

	Al(OH)3(a)       -2.75      8.05   10.80  Al(OH)3
	Chalcedony       -2.17     -5.72   -3.55  SiO2
	Gibbsite         -0.00      8.05    8.05  Al(OH)3
	H2(g)           -37.42    -40.57   -3.15  H2
	H2O(g)           -1.51     -0.00    1.51  H2O
	K-feldspar       -8.47     -7.59    0.88  KAlSi3O8
	K-mica           -4.46      8.51   12.97  KAl3Si3O10(OH)2
	Kaolinite        -1.05      4.66    5.71  Al2Si2O5(OH)4
	O2(g)            -8.35    -11.25   -2.89  O2
	Quartz           -1.74     -5.72   -3.98  SiO2
	SiO2(a)          -3.01     -5.72   -2.71  SiO2


Reaction step 6.

Using solution 1.	PURE WATER
Using pure phase assemblage 1.	
Using reaction 1.	

Reaction 1.	Irreversible reaction defined in simulation 8.

	  1.000e-06 moles of the following reaction have been added:

	                 Relative
	Reactant            moles

	K-feldspar           1.00000

	                 Relative
	Element             moles
	Al                   1.00000
	K                    1.00000
	O                    8.00000
	Si                   3.00000

-------------------------------Phase assemblage--------------------------------

                                                      Moles in assemblage
Phase                SI   log IAP  log KT      Initial       Final       Delta

Gibbsite           0.00      8.05    8.05    0.000e+00   8.081e-07   8.081e-07
K-feldspar        -7.51     -6.64    0.88    0.000e+00           0   0.000e+00
K-mica            -3.51      9.46   12.97    0.000e+00           0   0.000e+00
Kaolinite         -0.67      5.04    5.71    0.000e+00           0   0.000e+00

-----------------------------Solution composition------------------------------

	Elements           Molality       Moles

	Al                1.919e-07   1.919e-07
	K                 1.000e-06   1.000e-06
	Si                3.000e-06   3.000e-06

----------------------------Description of solution----------------------------

                                       pH  =   7.896      Charge balance
                                       pe  =  10.790      Adjusted to redox equilibrium
       Specific Conductance (uS/cm, 25 oC) = 0
                          Density (g/cm3)  =   0.99705
                        Activity of water  =   1.000
                           Ionic strength  =   1.013e-06
                       Mass of water (kg)  =   1.000e+00
                 Total alkalinity (eq/kg)  =   1.576e-06
                    Total carbon (mol/kg)  =   0.000e+00
                       Total CO2 (mol/kg)  =   0.000e+00
                      Temperature (deg C)  =  25.000
                  Electrical balance (eq)  =  -2.467e-17
 Percent error, 100*(Cat-|An|)/(Cat+|An|)  =  -0.00
                               Iterations  =  11
                                  Total H  = 1.110124e+02
                                  Total O  = 5.550622e+01

----------------------------Distribution of species----------------------------

                                                   Log       Log         Log 
   Species                 Molality    Activity  Molality  Activity     Gamma

   OH-                    7.879e-07   7.870e-07    -6.104    -6.104    -0.001
   H+                     1.274e-08   1.272e-08    -7.895    -7.896    -0.001
   H2O                    5.551e+01   1.000e+00     1.744    -0.000     0.000
Al               1.919e-07
   Al(OH)4-               1.905e-07   1.903e-07    -6.720    -6.721    -0.001
   Al(OH)3                1.284e-09   1.284e-09    -8.891    -8.891     0.000
   Al(OH)2+               1.110e-10   1.109e-10    -9.955    -9.955    -0.001
   AlOH+2                 1.808e-13   1.799e-13   -12.743   -12.745    -0.002
   Al+3                   2.328e-16   2.304e-16   -15.633   -15.638    -0.005
H(0)             0.000e+00
   H2                     0.000e+00   0.000e+00   -40.520   -40.520     0.000
K                1.000e-06
   K+                     1.000e-06   9.988e-07    -6.000    -6.001    -0.001
   KOH                    2.723e-13   2.723e-13   -12.565   -12.565     0.000
O(0)             9.161e-12
   O2                     4.580e-12   4.580e-12   -11.339   -11.339     0.000
Si               3.000e-06
   H4SiO4                 2.966e-06   2.966e-06    -5.528    -5.528     0.000
   H3SiO4-                3.442e-08   3.438e-08    -7.463    -7.464    -0.001
   H2SiO4-2               1.847e-13   1.838e-13   -12.734   -12.736    -0.002

------------------------------Saturation indices-------------------------------

	Phase               SI   log IAP  log KT

	Al(OH)3(a)       -2.75      8.05   10.80  Al(OH)3
	Chalcedony       -1.98     -5.53   -3.55  SiO2
	Gibbsite          0.00      8.05    8.05  Al(OH)3
	H2(g)           -37.37    -40.52   -3.15  H2
	H2O(g)           -1.51     -0.00    1.51  H2O
	K-feldspar       -7.51     -6.64    0.88  KAlSi3O8
	K-mica           -3.51      9.46   12.97  KAl3Si3O10(OH)2
	Kaolinite        -0.67      5.04    5.71  Al2Si2O5(OH)4
	O2(g)            -8.45    -11.34   -2.89  O2
	Quartz           -1.55     -5.53   -3.98  SiO2
	SiO2(a)          -2.82     -5.53   -2.71  SiO2


Reaction step 7.

Using solution 1.	PURE WATER
Using pure phase assemblage 1.	
Using reaction 1.	

Reaction 1.	Irreversible reaction defined in simulation 8.

	  2.000e-06 moles of the following reaction have been added:

	                 Relative
	Reactant            moles

	K-feldspar           1.00000

	                 Relative
	Element             moles
	Al                   1.00000
	K                    1.00000
	O                    8.00000
	Si                   3.00000

-------------------------------Phase assemblage--------------------------------

                                                      Moles in assemblage
Phase                SI   log IAP  log KT      Initial       Final       Delta

Gibbsite           0.00      8.05    8.05    0.000e+00   1.633e-06   1.633e-06
K-feldspar        -6.04     -5.17    0.88    0.000e+00           0   0.000e+00
K-mica            -2.04     10.93   12.97    0.000e+00           0   0.000e+00
Kaolinite         -0.07      5.64    5.71    0.000e+00           0   0.000e+00

-----------------------------Solution composition------------------------------

	Elements           Molality       Moles

	Al                3.666e-07   3.666e-07
	K                 2.000e-06   2.000e-06
	Si                6.000e-06   6.000e-06

----------------------------Description of solution----------------------------

                                       pH  =   8.178      Charge balance
                                       pe  =  10.600      Adjusted to redox equilibrium
       Specific Conductance (uS/cm, 25 oC) = 0
                          Density (g/cm3)  =   0.99705
                        Activity of water  =   1.000
                           Ionic strength  =   2.007e-06
                       Mass of water (kg)  =   1.000e+00
                 Total alkalinity (eq/kg)  =   3.100e-06
                    Total carbon (mol/kg)  =   0.000e+00
                       Total CO2 (mol/kg)  =   0.000e+00
                      Temperature (deg C)  =  25.000
                  Electrical balance (eq)  =  -4.552e-15
 Percent error, 100*(Cat-|An|)/(Cat+|An|)  =  -0.00
                               Iterations  =  11
                                  Total H  = 1.110124e+02
                                  Total O  = 5.550623e+01

----------------------------Distribution of species----------------------------

                                                   Log       Log         Log 
   Species                 Molality    Activity  Molality  Activity     Gamma

   OH-                    1.511e-06   1.508e-06    -5.821    -5.822    -0.001
   H+                     6.648e-09   6.637e-09    -8.177    -8.178    -0.001
   H2O                    5.551e+01   1.000e+00     1.744    -0.000     0.000
Al               3.666e-07
   Al(OH)4-               3.653e-07   3.647e-07    -6.437    -6.438    -0.001
   Al(OH)3                1.284e-09   1.284e-09    -8.891    -8.891     0.000
   Al(OH)2+               5.794e-11   5.784e-11   -10.237   -10.238    -0.001
   AlOH+2                 4.931e-14   4.898e-14   -13.307   -13.310    -0.003
   Al+3                   3.322e-17   3.273e-17   -16.479   -16.485    -0.006
H(0)             0.000e+00
   H2                     0.000e+00   0.000e+00   -40.707   -40.707     0.000
K                2.000e-06
   K+                     2.000e-06   1.997e-06    -5.699    -5.700    -0.001
   KOH                    1.043e-12   1.043e-12   -11.982   -11.982     0.000
O(0)             2.159e-11
   O2                     1.080e-11   1.080e-11   -10.967   -10.967     0.000
Si               6.000e-06
   H4SiO4                 5.869e-06   5.869e-06    -5.231    -5.231     0.000
   H3SiO4-                1.306e-07   1.304e-07    -6.884    -6.885    -0.001
   H2SiO4-2               1.345e-12   1.336e-12   -11.871   -11.874    -0.003

------------------------------Saturation indices-------------------------------

	Phase               SI   log IAP  log KT

	Al(OH)3(a)       -2.75      8.05   10.80  Al(OH)3
	Chalcedony       -1.68     -5.23   -3.55  SiO2
	Gibbsite          0.00      8.05    8.05  Al(OH)3
	H2(g)           -37.56    -40.71   -3.15  H2
	H2O(g)           -1.51     -0.00    1.51  H2O
	K-feldspar       -6.04     -5.17    0.88  KAlSi3O8
	K-mica           -2.04     10.93   12.97  KAl3Si3O10(OH)2
	Kaolinite        -0.07      5.64    5.71  Al2Si2O5(OH)4
	O2(g)            -8.07    -10.97   -2.89  O2
	Quartz           -1.25     -5.23   -3.98  SiO2
	SiO2(a)          -2.52     -5.23   -2.71  SiO2


Reaction step 8.

Using solution 1.	PURE WATER
Using pure phase assemblage 1.	
Using reaction 1.	

Reaction 1.	Irreversible reaction defined in simulation 8.

	  4.000e-06 moles of the following reaction have been added:

	                 Relative
	Reactant            moles

	K-feldspar           1.00000

	                 Relative
	Element             moles
	Al                   1.00000
	K                    1.00000
	O                    8.00000
	Si                   3.00000

-------------------------------Phase assemblage--------------------------------

                                                      Moles in assemblage
Phase                SI   log IAP  log KT      Initial       Final       Delta

Gibbsite          -0.11      7.94    8.05    0.000e+00           0   0.000e+00
K-feldspar        -5.11     -4.23    0.88    0.000e+00           0   0.000e+00
K-mica            -1.32     11.65   12.97    0.000e+00           0   0.000e+00
Kaolinite          0.00      5.71    5.71    0.000e+00   1.712e-06   1.712e-06

-----------------------------Solution composition------------------------------

	Elements           Molality       Moles

	Al                5.761e-07   5.761e-07
	K                 4.000e-06   4.000e-06
	Si                8.576e-06   8.576e-06

----------------------------Description of solution----------------------------

                                       pH  =   8.484      Charge balance
                                       pe  =   9.405      Adjusted to redox equilibrium
       Specific Conductance (uS/cm, 25 oC) = 0
                          Density (g/cm3)  =   0.99705
                        Activity of water  =   1.000
                           Ionic strength  =   4.003e-06
                       Mass of water (kg)  =   1.000e+00
                 Total alkalinity (eq/kg)  =   5.728e-06
                    Total carbon (mol/kg)  =   0.000e+00
                       Total CO2 (mol/kg)  =   0.000e+00
                      Temperature (deg C)  =  25.000
                  Electrical balance (eq)  =   2.084e-16
 Percent error, 100*(Cat-|An|)/(Cat+|An|)  =   0.00
                               Iterations  =  12
                                  Total H  = 1.110124e+02
                                  Total O  = 5.550623e+01

----------------------------Distribution of species----------------------------

                                                   Log       Log         Log 
   Species                 Molality    Activity  Molality  Activity     Gamma

   OH-                    3.059e-06   3.051e-06    -5.514    -5.516    -0.001
   H+                     3.288e-09   3.281e-09    -8.483    -8.484    -0.001
   H2O                    5.551e+01   1.000e+00     1.744    -0.000     0.000
Al               5.761e-07
   Al(OH)4-               5.751e-07   5.737e-07    -6.240    -6.241    -0.001
   Al(OH)3                9.987e-10   9.987e-10    -9.001    -9.001     0.000
   Al(OH)2+               2.229e-11   2.224e-11   -10.652   -10.653    -0.001
   AlOH+2                 9.396e-15   9.309e-15   -14.027   -14.031    -0.004
   Al+3                   3.140e-18   3.074e-18   -17.503   -17.512    -0.009
H(0)             2.356e-39
   H2                     1.178e-39   1.178e-39   -38.929   -38.929     0.000
K                4.000e-06
   K+                     4.000e-06   3.991e-06    -5.398    -5.399    -0.001
   KOH                    4.218e-12   4.218e-12   -11.375   -11.375     0.000
O(0)             6.008e-15
   O2                     3.004e-15   3.004e-15   -14.522   -14.522     0.000
Si               8.576e-06
   H4SiO4                 8.206e-06   8.206e-06    -5.086    -5.086     0.000
   H3SiO4-                3.697e-07   3.688e-07    -6.432    -6.433    -0.001
   H2SiO4-2               7.719e-12   7.647e-12   -11.112   -11.116    -0.004

------------------------------Saturation indices-------------------------------

	Phase               SI   log IAP  log KT

	Al(OH)3(a)       -2.86      7.94   10.80  Al(OH)3
	Chalcedony       -1.53     -5.09   -3.55  SiO2
	Gibbsite         -0.11      7.94    8.05  Al(OH)3
	H2(g)           -35.78    -38.93   -3.15  H2
	H2O(g)           -1.51     -0.00    1.51  H2O
	K-feldspar       -5.11     -4.23    0.88  KAlSi3O8
	K-mica           -1.32     11.65   12.97  KAl3Si3O10(OH)2
	Kaolinite         0.00      5.71    5.71  Al2Si2O5(OH)4
	O2(g)           -11.63    -14.52   -2.89  O2
	Quartz           -1.11     -5.09   -3.98  SiO2
	SiO2(a)          -2.37     -5.09   -2.71  SiO2


Reaction step 9.

Using solution 1.	PURE WATER
Using pure phase assemblage 1.	
Using reaction 1.	

Reaction 1.	Irreversible reaction defined in simulation 8.

	  8.000e-06 moles of the following reaction have been added:

	                 Relative
	Reactant            moles

	K-feldspar           1.00000

	                 Relative
	Element             moles
	Al                   1.00000
	K                    1.00000
	O                    8.00000
	Si                   3.00000

-------------------------------Phase assemblage--------------------------------

                                                      Moles in assemblage
Phase                SI   log IAP  log KT      Initial       Final       Delta

Gibbsite          -0.38      7.67    8.05    0.000e+00           0   0.000e+00
K-feldspar        -3.97     -3.10    0.88    0.000e+00           0   0.000e+00
K-mica            -0.73     12.24   12.97    0.000e+00           0   0.000e+00
Kaolinite         -0.00      5.71    5.71    0.000e+00   3.695e-06   3.695e-06

-----------------------------Solution composition------------------------------

	Elements           Molality       Moles

	Al                6.110e-07   6.110e-07
	K                 8.000e-06   8.000e-06
	Si                1.661e-05   1.661e-05

----------------------------Description of solution----------------------------

                                       pH  =   8.779      Charge balance
                                       pe  =   9.154      Adjusted to redox equilibrium
       Specific Conductance (uS/cm, 25 oC) = 1
                          Density (g/cm3)  =   0.99705
                        Activity of water  =   1.000
                           Ionic strength  =   8.002e-06
                       Mass of water (kg)  =   1.000e+00
                 Total alkalinity (eq/kg)  =   9.833e-06
                    Total carbon (mol/kg)  =   0.000e+00
                       Total CO2 (mol/kg)  =   0.000e+00
                      Temperature (deg C)  =  25.000
                  Electrical balance (eq)  =  -3.120e-18
 Percent error, 100*(Cat-|An|)/(Cat+|An|)  =  -0.00
                               Iterations  =  13
                                  Total H  = 1.110124e+02
                                  Total O  = 5.550625e+01

----------------------------Distribution of species----------------------------

                                                   Log       Log         Log 
   Species                 Molality    Activity  Molality  Activity     Gamma

   OH-                    6.035e-06   6.015e-06    -5.219    -5.221    -0.001
   H+                     1.670e-09   1.664e-09    -8.777    -8.779    -0.001
   H2O                    5.551e+01   1.000e+00     1.744    -0.000     0.000
Al               6.110e-07
   Al(OH)4-               6.105e-07   6.084e-07    -6.214    -6.216    -0.001
   Al(OH)3                5.373e-10   5.373e-10    -9.270    -9.270     0.000
   Al(OH)2+               6.089e-12   6.069e-12   -11.215   -11.217    -0.001
   AlOH+2                 1.306e-15   1.289e-15   -14.884   -14.890    -0.006
   Al+3                   2.224e-19   2.159e-19   -18.653   -18.666    -0.013
H(0)             1.931e-39
   H2                     9.655e-40   9.655e-40   -39.015   -39.015     0.000
K                8.000e-06
   K+                     8.000e-06   7.974e-06    -5.097    -5.098    -0.001
   KOH                    1.661e-11   1.661e-11   -10.780   -10.780     0.000
O(0)             8.944e-15
   O2                     4.472e-15   4.472e-15   -14.349   -14.349     0.000
Si               1.661e-05
   H4SiO4                 1.525e-05   1.525e-05    -4.817    -4.817     0.000
   H3SiO4-                1.356e-06   1.352e-06    -5.868    -5.869    -0.001
   H2SiO4-2               5.598e-11   5.524e-11   -10.252   -10.258    -0.006

------------------------------Saturation indices-------------------------------

	Phase               SI   log IAP  log KT

	Al(OH)3(a)       -3.13      7.67   10.80  Al(OH)3
	Chalcedony       -1.27     -4.82   -3.55  SiO2
	Gibbsite         -0.38      7.67    8.05  Al(OH)3
	H2(g)           -35.87    -39.02   -3.15  H2
	H2O(g)           -1.51     -0.00    1.51  H2O
	K-feldspar       -3.97     -3.10    0.88  KAlSi3O8
	K-mica           -0.73     12.24   12.97  KAl3Si3O10(OH)2
	Kaolinite        -0.00      5.71    5.71  Al2Si2O5(OH)4
	O2(g)           -11.46    -14.35   -2.89  O2
	Quartz           -0.84     -4.82   -3.98  SiO2
	SiO2(a)          -2.10     -4.82   -2.71  SiO2


Reaction step 10.

Using solution 1.	PURE WATER
Using pure phase assemblage 1.	
Using reaction 1.	

Reaction 1.	Irreversible reaction defined in simulation 8.

	  1.600e-05 moles of the following reaction have been added:

	                 Relative
	Reactant            moles

	K-feldspar           1.00000

	                 Relative
	Element             moles
	Al                   1.00000
	K                    1.00000
	O                    8.00000
	Si                   3.00000

-------------------------------Phase assemblage--------------------------------

                                                      Moles in assemblage
Phase                SI   log IAP  log KT      Initial       Final       Delta

Gibbsite          -0.64      7.41    8.05    0.000e+00           0   0.000e+00
K-feldspar        -2.89     -2.01    0.88    0.000e+00           0   0.000e+00
K-mica            -0.17     12.80   12.97    0.000e+00           0   0.000e+00
Kaolinite          0.00      5.71    5.71    0.000e+00   7.701e-06   7.701e-06

-----------------------------Solution composition------------------------------

	Elements           Molality       Moles

	Al                5.987e-07   5.987e-07
	K                 1.600e-05   1.600e-05
	Si                3.260e-05   3.260e-05

----------------------------Description of solution----------------------------

                                       pH  =   9.035      Charge balance
                                       pe  =   8.801      Adjusted to redox equilibrium
       Specific Conductance (uS/cm, 25 oC) = 3
                          Density (g/cm3)  =   0.99705
                        Activity of water  =   1.000
                           Ionic strength  =   1.600e-05
                       Mass of water (kg)  =   1.000e+00
                 Total alkalinity (eq/kg)  =   1.780e-05
                    Total carbon (mol/kg)  =   0.000e+00
                       Total CO2 (mol/kg)  =   0.000e+00
                      Temperature (deg C)  =  25.000
                  Electrical balance (eq)  =   1.394e-16
 Percent error, 100*(Cat-|An|)/(Cat+|An|)  =   0.00
                               Iterations  =  14
                                  Total H  = 1.110124e+02
                                  Total O  = 5.550628e+01

----------------------------Distribution of species----------------------------

                                                   Log       Log         Log 
   Species                 Molality    Activity  Molality  Activity     Gamma

   OH-                    1.089e-05   1.084e-05    -4.963    -4.965    -0.002
   H+                     9.275e-10   9.232e-10    -9.033    -9.035    -0.002
   H2O                    5.551e+01   1.000e+00     1.744    -0.000     0.000
Al               5.987e-07
   Al(OH)4-               5.984e-07   5.956e-07    -6.223    -6.225    -0.002
   Al(OH)3                2.918e-10   2.918e-10    -9.535    -9.535     0.000
   Al(OH)2+               1.837e-12   1.828e-12   -11.736   -11.738    -0.002
   AlOH+2                 2.194e-16   2.153e-16   -15.659   -15.667    -0.008
   Al+3                   2.087e-20   2.001e-20   -19.681   -19.699    -0.018
H(0)             3.011e-39
   H2                     1.505e-39   1.505e-39   -38.822   -38.822     0.000
K                1.600e-05
   K+                     1.600e-05   1.593e-05    -4.796    -4.798    -0.002
   KOH                    5.981e-11   5.981e-11   -10.223   -10.223     0.000
O(0)             3.679e-15
   O2                     1.840e-15   1.840e-15   -14.735   -14.735     0.000
Si               3.260e-05
   H4SiO4                 2.809e-05   2.809e-05    -4.551    -4.551     0.000
   H3SiO4-                4.508e-06   4.487e-06    -5.346    -5.348    -0.002
   H2SiO4-2               3.368e-10   3.306e-10    -9.473    -9.481    -0.008

------------------------------Saturation indices-------------------------------

	Phase               SI   log IAP  log KT

	Al(OH)3(a)       -3.39      7.41   10.80  Al(OH)3
	Chalcedony       -1.00     -4.55   -3.55  SiO2
	Gibbsite         -0.64      7.41    8.05  Al(OH)3
	H2(g)           -35.67    -38.82   -3.15  H2
	H2O(g)           -1.51     -0.00    1.51  H2O
	K-feldspar       -2.89     -2.01    0.88  KAlSi3O8
	K-mica           -0.17     12.80   12.97  KAl3Si3O10(OH)2
	Kaolinite         0.00      5.71    5.71  Al2Si2O5(OH)4
	O2(g)           -11.84    -14.74   -2.89  O2
	Quartz           -0.57     -4.55   -3.98  SiO2
	SiO2(a)          -1.84     -4.55   -2.71  SiO2


Reaction step 11.

Using solution 1.	PURE WATER
Using pure phase assemblage 1.	
Using reaction 1.	

Reaction 1.	Irreversible reaction defined in simulation 8.

	  3.200e-05 moles of the following reaction have been added:

	                 Relative
	Reactant            moles

	K-feldspar           1.00000

	                 Relative
	Element             moles
	Al                   1.00000
	K                    1.00000
	O                    8.00000
	Si                   3.00000

-------------------------------Phase assemblage--------------------------------

                                                      Moles in assemblage
Phase                SI   log IAP  log KT      Initial       Final       Delta

Gibbsite          -0.93      7.12    8.05    0.000e+00           0   0.000e+00
K-feldspar        -2.14     -1.26    0.88    0.000e+00           0   0.000e+00
K-mica             0.00     12.97   12.97    0.000e+00   1.020e-05   1.020e-05
Kaolinite         -0.00      5.71    5.71    0.000e+00   5.270e-07   5.270e-07

-----------------------------Solution composition------------------------------

	Elements           Molality       Moles

	Al                3.349e-07   3.349e-07
	K                 2.180e-05   2.180e-05
	Si                6.434e-05   6.433e-05

----------------------------Description of solution----------------------------

                                       pH  =   9.072      Charge balance
                                       pe  =   9.300      Adjusted to redox equilibrium
       Specific Conductance (uS/cm, 25 oC) = 3
[...]


Reaction step 4.

Using solution 1.	
Using pure phase assemblage 1.	
Using kinetics 1.	Kinetics defined in simulation 9.

Kinetics 1.	Kinetics defined in simulation 9.

	Time step: 100000 seconds  (Incremented time: 111100 seconds)

	Rate name       Delta Moles Total Moles   Reactant        Coefficient

	K-feldspar       -1.266e-06   1.940e+00   K-feldspar                1

----------------------------------User print-----------------------------------

        Transition                 Time   K-feldspar      LA(K/H)   LA(H4SiO4) 
                                             reacted 
                                             (moles) 
A: Gibbsite                  4.4326e+02   4.9047e-08  -2.6084e-01  -6.8330e+00 
B: Gibbsite  -> Kaolinite    6.7368e+04   7.3263e-06   3.6070e+00  -4.8506e+00 
C: Gibbsite  -> Kaolinite    6.7368e+04   7.3263e-06   3.6070e+00  -4.8506e+00 

-------------------------------Phase assemblage--------------------------------

                                                      Moles in assemblage
Phase                SI   log IAP  log KT      Initial       Final       Delta

Gibbsite          -0.00      8.05    8.05    9.936e-08   1.142e-06   1.043e-06
K-mica            -2.79     10.18   12.97    0.000e+00           0   0.000e+00
Kaolinite         -0.37      5.33    5.71    0.000e+00           0   0.000e+00

-----------------------------Solution composition------------------------------

	Elements           Molality       Moles

	Al                2.640e-07   2.640e-07
	K                 1.406e-06   1.406e-06
	Si                4.218e-06   4.218e-06

----------------------------Description of solution----------------------------

                                       pH  =   8.035      Charge balance
                                       pe  =  10.043      Adjusted to redox equilibrium
       Specific Conductance (uS/cm, 25 oC) = 0
                          Density (g/cm3)  =   0.99705
                        Activity of water  =   1.000
                           Ionic strength  =   1.415e-06
                       Mass of water (kg)  =   1.000e+00
                 Total alkalinity (eq/kg)  =   2.198e-06
                    Total carbon (mol/kg)  =   0.000e+00
                       Total CO2 (mol/kg)  =   0.000e+00
                      Temperature (deg C)  =  25.000
                  Electrical balance (eq)  =  -1.082e-10
 Percent error, 100*(Cat-|An|)/(Cat+|An|)  =  -0.00
                               Iterations  =  23
                                  Total H  = 1.110124e+02
                                  Total O  = 5.550622e+01

----------------------------Distribution of species----------------------------

                                                   Log       Log         Log 
   Species                 Molality    Activity  Molality  Activity     Gamma

   OH-                    1.086e-06   1.085e-06    -5.964    -5.965    -0.001
   H+                     9.241e-09   9.228e-09    -8.034    -8.035    -0.001
   H2O                    5.551e+01   1.000e+00     1.744    -0.000     0.000
Al               2.640e-07
   Al(OH)4-               2.626e-07   2.623e-07    -6.581    -6.581    -0.001
   Al(OH)3                1.284e-09   1.284e-09    -8.891    -8.891     0.000
   Al(OH)2+               8.053e-11   8.042e-11   -10.094   -10.095    -0.001
   AlOH+2                 9.521e-14   9.468e-14   -13.021   -13.024    -0.002
   Al+3                   8.907e-17   8.796e-17   -16.050   -16.056    -0.005
H(0)             9.907e-40
   H2                     4.954e-40   4.954e-40   -39.305   -39.305     0.000
K                1.406e-06
   K+                     1.406e-06   1.404e-06    -5.852    -5.853    -0.001
   KOH                    5.276e-13   5.276e-13   -12.278   -12.278     0.000
O(0)             3.398e-14
   O2                     1.699e-14   1.699e-14   -13.770   -13.770     0.000
Si               4.218e-06
   H4SiO4                 4.152e-06   4.152e-06    -5.382    -5.382     0.000
   H3SiO4-                6.643e-08   6.634e-08    -7.178    -7.178    -0.001
   H2SiO4-2               4.918e-13   4.890e-13   -12.308   -12.311    -0.002

------------------------------Saturation indices-------------------------------

	Phase               SI   log IAP  log KT

	Al(OH)3(a)       -2.75      8.05   10.80  Al(OH)3
	Chalcedony       -1.83     -5.38   -3.55  SiO2
	Gibbsite         -0.00      8.05    8.05  Al(OH)3
	H2(g)           -36.16    -39.31   -3.15  H2
	H2O(g)           -1.51     -0.00    1.51  H2O
	K-feldspar       -6.79     -5.91    0.88  KAlSi3O8
	K-mica           -2.79     10.18   12.97  KAl3Si3O10(OH)2
	Kaolinite        -0.37      5.33    5.71  Al2Si2O5(OH)4
	O2(g)           -10.88    -13.77   -2.89  O2
	Quartz           -1.40     -5.38   -3.98  SiO2
	SiO2(a)          -2.67     -5.38   -2.71  SiO2


Reaction step 5.

Using solution 1.	
Using pure phase assemblage 1.	
Using kinetics 1.	Kinetics defined in simulation 9.

Kinetics 1.	Kinetics defined in simulation 9.

	Time step: 1e+06 seconds  (Incremented time: 1.1111e+06 seconds)

	Rate name       Delta Moles Total Moles   Reactant        Coefficient

	K-feldspar       -1.265e-05   1.940e+00   K-feldspar                1

----------------------------------User print-----------------------------------

        Transition                 Time   K-feldspar      LA(K/H)   LA(H4SiO4) 
                                             reacted 
                                             (moles) 
A: Gibbsite                  4.4326e+02   4.9047e-08  -2.6084e-01  -6.8330e+00 
B: Gibbsite  -> Kaolinite    1.2020e+05   2.6723e-06   2.7268e+00  -5.1950e+00 
C: Gibbsite  -> Kaolinite    6.7368e+04   7.3263e-06   3.6070e+00  -4.8506e+00 

-------------------------------Phase assemblage--------------------------------

                                                      Moles in assemblage
Phase                SI   log IAP  log KT      Initial       Final       Delta

Gibbsite          -0.59      7.45    8.05    1.142e-06           0  -1.142e-06
K-mica            -0.27     12.70   12.97    0.000e+00           0   0.000e+00
Kaolinite          0.00      5.71    5.71    0.000e+00   6.724e-06   6.724e-06

-----------------------------Solution composition------------------------------

	Elements           Molality       Moles

	Al                6.045e-07   6.045e-07
	K                 1.405e-05   1.405e-05
	Si                2.871e-05   2.871e-05

----------------------------Description of solution----------------------------

                                       pH  =   8.990      Charge balance
                                       pe  =   9.109      Adjusted to redox equilibrium
       Specific Conductance (uS/cm, 25 oC) = 2
                          Density (g/cm3)  =   0.99705
                        Activity of water  =   1.000
                           Ionic strength  =   1.405e-05
                       Mass of water (kg)  =   1.000e+00
                 Total alkalinity (eq/kg)  =   1.587e-05
                    Total carbon (mol/kg)  =   0.000e+00
                       Total CO2 (mol/kg)  =   0.000e+00
                      Temperature (deg C)  =  25.000
                  Electrical balance (eq)  =  -1.082e-10
 Percent error, 100*(Cat-|An|)/(Cat+|An|)  =  -0.00
                               Iterations  =  25
                                  Total H  = 1.110124e+02
                                  Total O  = 5.550627e+01

----------------------------Distribution of species----------------------------

                                                   Log       Log         Log 
   Species                 Molality    Activity  Molality  Activity     Gamma

   OH-                    9.821e-06   9.778e-06    -5.008    -5.010    -0.002
   H+                     1.028e-09   1.024e-09    -8.988    -8.990    -0.002
   H2O                    5.551e+01   1.000e+00     1.744    -0.000     0.000
Al               6.045e-07
   Al(OH)4-               6.042e-07   6.016e-07    -6.219    -6.221    -0.002
   Al(OH)3                3.268e-10   3.268e-10    -9.486    -9.486     0.000
   Al(OH)2+               2.281e-12   2.271e-12   -11.642   -11.644    -0.002
   AlOH+2                 3.019e-16   2.966e-16   -15.520   -15.528    -0.008
   Al+3                   3.180e-20   3.058e-20   -19.498   -19.515    -0.017
H(0)             8.983e-40
   H2                     4.491e-40   4.491e-40   -39.348   -39.348     0.000
K                1.405e-05
   K+                     1.405e-05   1.399e-05    -4.852    -4.854    -0.002
   KOH                    4.738e-11   4.738e-11   -10.324   -10.324     0.000
O(0)             4.133e-14
   O2                     2.067e-14   2.067e-14   -13.685   -13.685     0.000
Si               2.871e-05
   H4SiO4                 2.508e-05   2.508e-05    -4.601    -4.601     0.000
   H3SiO4-                3.628e-06   3.612e-06    -5.440    -5.442    -0.002
   H2SiO4-2               2.442e-10   2.400e-10    -9.612    -9.620    -0.008

------------------------------Saturation indices-------------------------------

	Phase               SI   log IAP  log KT

	Al(OH)3(a)       -3.35      7.45   10.80  Al(OH)3
	Chalcedony       -1.05     -4.60   -3.55  SiO2
	Gibbsite         -0.59      7.45    8.05  Al(OH)3
	H2(g)           -36.20    -39.35   -3.15  H2
	H2O(g)           -1.51     -0.00    1.51  H2O
	K-feldspar       -3.09     -2.21    0.88  KAlSi3O8
	K-mica           -0.27     12.70   12.97  KAl3Si3O10(OH)2
	Kaolinite         0.00      5.71    5.71  Al2Si2O5(OH)4
	O2(g)           -10.79    -13.68   -2.89  O2
	Quartz           -0.62     -4.60   -3.98  SiO2
	SiO2(a)          -1.89     -4.60   -2.71  SiO2


Reaction step 6.

Using solution 1.	
Using pure phase assemblage 1.	
Using kinetics 1.	Kinetics defined in simulation 9.

Kinetics 1.	Kinetics defined in simulation 9.

	Time step: 1e+07 seconds  (Incremented time: 1.11111e+07 seconds)

	Rate name       Delta Moles Total Moles   Reactant        Coefficient

	K-feldspar       -1.126e-04   1.940e+00   K-feldspar                1

----------------------------------User print-----------------------------------

        Transition                 Time   K-feldspar      LA(K/H)   LA(H4SiO4) 
                                             reacted 
                                             (moles) 
A: Gibbsite                  4.4326e+02   4.9047e-08  -2.6084e-01  -6.8330e+00 
B: Gibbsite  -> Kaolinite    1.2020e+05   2.6723e-06   2.7268e+00  -5.1950e+00 
C: Gibbsite  -> Kaolinite    6.7368e+04   7.3263e-06   3.6070e+00  -4.8506e+00 
D: Kaolinite -> K-mica       1.2891e+06   2.0628e-05   4.4080e+00  -4.4540e+00 
E: Kaolinite -> K-mica       1.9739e+06   3.9590e-05   4.5392e+00  -4.1772e+00 

-------------------------------Phase assemblage--------------------------------

                                                      Moles in assemblage
Phase                SI   log IAP  log KT      Initial       Final       Delta

Gibbsite          -1.76      6.29    8.05    0.000e+00           0   0.000e+00
K-mica             0.00     12.97   12.97    0.000e+00   4.217e-05   4.217e-05
Kaolinite         -0.57      5.14    5.71    6.724e-06           0  -6.724e-06

-----------------------------Solution composition------------------------------

	Elements           Molality       Moles

	Al                9.275e-08   9.275e-08
	K                 8.443e-05   8.443e-05
	Si                2.533e-04   2.533e-04

----------------------------Description of solution----------------------------

                                       pH  =   9.339      Charge balance
                                       pe  =   8.708      Adjusted to redox equilibrium
       Specific Conductance (uS/cm, 25 oC) = 10
                          Density (g/cm3)  =   0.99705
                        Activity of water  =   1.000
                           Ionic strength  =   8.444e-05
                       Mass of water (kg)  =   1.000e+00
                 Total alkalinity (eq/kg)  =   8.471e-05
                    Total carbon (mol/kg)  =   0.000e+00
                       Total CO2 (mol/kg)  =   0.000e+00
                      Temperature (deg C)  =  25.000
                  Electrical balance (eq)  =  -1.082e-10
 Percent error, 100*(Cat-|An|)/(Cat+|An|)  =  -0.00
                               Iterations  = 146
                                  Total H  = 1.110123e+02
                                  Total O  = 5.550672e+01

----------------------------Distribution of species----------------------------

                                                   Log       Log         Log 
   Species                 Molality    Activity  Molality  Activity     Gamma

   OH-                    2.211e-05   2.187e-05    -4.655    -4.660    -0.005
   H+                     4.625e-10   4.577e-10    -9.335    -9.339    -0.005
   H2O                    5.551e+01   1.000e+00     1.744    -0.000     0.000
Al               9.275e-08
   Al(OH)4-               9.273e-08   9.175e-08    -7.033    -7.037    -0.005
   Al(OH)3                2.228e-11   2.228e-11   -10.652   -10.652     0.000
   Al(OH)2+               6.996e-14   6.921e-14   -13.155   -13.160    -0.005
   AlOH+2                 4.218e-18   4.042e-18   -17.375   -17.393    -0.018
   Al+3                   2.047e-22   1.863e-22   -21.689   -21.730    -0.041
H(0)             1.138e-39
   H2                     5.689e-40   5.689e-40   -39.245   -39.245     0.000
K                8.443e-05
   K+                     8.443e-05   8.354e-05    -4.073    -4.078    -0.005
   KOH                    6.328e-10   6.328e-10    -9.199    -9.199     0.000
O(0)             2.576e-14
   O2                     1.288e-14   1.288e-14   -13.890   -13.890     0.000
Si               2.533e-04
   H4SiO4                 1.911e-04   1.911e-04    -3.719    -3.719     0.000
   H3SiO4-                6.222e-05   6.156e-05    -4.206    -4.211    -0.005
   H2SiO4-2               9.547e-09   9.149e-09    -8.020    -8.039    -0.018

------------------------------Saturation indices-------------------------------

	Phase               SI   log IAP  log KT

	Al(OH)3(a)       -4.51      6.29   10.80  Al(OH)3
	Chalcedony       -0.17     -3.72   -3.55  SiO2
	Gibbsite         -1.76      6.29    8.05  Al(OH)3
	H2(g)           -36.09    -39.24   -3.15  H2
	H2O(g)           -1.51     -0.00    1.51  H2O
	K-feldspar       -0.48      0.39    0.88  KAlSi3O8
	K-mica            0.00     12.97   12.97  KAl3Si3O10(OH)2
	Kaolinite        -0.57      5.14    5.71  Al2Si2O5(OH)4
	O2(g)           -11.00    -13.89   -2.89  O2
	Quartz            0.26     -3.72   -3.98  SiO2
	SiO2(a)          -1.01     -3.72   -2.71  SiO2


Reaction step 7.

Using solution 1.	
Using pure phase assemblage 1.	
Using kinetics 1.	Kinetics defined in simulation 9.

Kinetics 1.	Kinetics defined in simulation 9.

	Time step: 1e+08 seconds  (Incremented time: 1.11111e+08 seconds)

	Rate name       Delta Moles Total Moles   Reactant        Coefficient

	K-feldspar       -6.428e-05   1.940e+00   K-feldspar                1

----------------------------------User print-----------------------------------

        Transition                 Time   K-feldspar      LA(K/H)   LA(H4SiO4) 
                                             reacted 
                                             (moles) 
A: Gibbsite                  4.4326e+02   4.9047e-08  -2.6084e-01  -6.8330e+00 
B: Gibbsite  -> Kaolinite    1.2020e+05   2.6723e-06   2.7268e+00  -5.1950e+00 
C: Gibbsite  -> Kaolinite    6.7368e+04   7.3263e-06   3.6070e+00  -4.8506e+00 
D: Kaolinite -> K-mica       1.2891e+06   2.0628e-05   4.4080e+00  -4.4540e+00 
E: Kaolinite -> K-mica       1.9739e+06   3.9590e-05   4.5392e+00  -4.1772e+00 
F: K-mica    -> K-feldspar   4.4619e+07   1.9072e-04   5.4879e+00  -3.5540e+00 

-------------------------------Phase assemblage--------------------------------

                                                      Moles in assemblage
Phase                SI   log IAP  log KT      Initial       Final       Delta

Gibbsite          -2.00      6.05    8.05    0.000e+00           0   0.000e+00
K-mica             0.00     12.97   12.97    4.217e-05   6.361e-05   2.144e-05
Kaolinite         -0.72      4.99    5.71    0.000e+00           0   0.000e+00

-----------------------------Solution composition------------------------------

	Elements           Molality       Moles

	Al                5.990e-08   5.990e-08
	K                 1.273e-04   1.273e-04
	Si                3.818e-04   3.818e-04

----------------------------Description of solution----------------------------

                                       pH  =   9.389      Charge balance
                                       pe  =   8.660      Adjusted to redox equilibrium
       Specific Conductance (uS/cm, 25 oC) = 14
                          Density (g/cm3)  =   0.99705
                        Activity of water  =   1.000
                           Ionic strength  =   1.273e-04
                       Mass of water (kg)  =   1.000e+00
                 Total alkalinity (eq/kg)  =   1.275e-04
                    Total carbon (mol/kg)  =   0.000e+00
                       Total CO2 (mol/kg)  =   0.000e+00
                      Temperature (deg C)  =  25.000
                  Electrical balance (eq)  =  -1.082e-10
 Percent error, 100*(Cat-|An|)/(Cat+|An|)  =  -0.00
                               Iterations  = 265
                                  Total H  = 1.110123e+02
                                  Total O  = 5.550698e+01

----------------------------Distribution of species----------------------------

                                                   Log       Log         Log 
   Species                 Molality    Activity  Molality  Activity     Gamma

   OH-                    2.486e-05   2.453e-05    -4.605    -4.610    -0.006
   H+                     4.133e-10   4.080e-10    -9.384    -9.389    -0.006
   H2O                    5.551e+01   1.000e+00     1.744    -0.000     0.000
Al               5.990e-08
   Al(OH)4-               5.988e-08   5.911e-08    -7.223    -7.228    -0.006
   Al(OH)3                1.280e-11   1.280e-11   -10.893   -10.893     0.000
   Al(OH)2+               3.590e-14   3.544e-14   -13.445   -13.451    -0.006
   AlOH+2                 1.944e-18   1.845e-18   -17.711   -17.734    -0.023
   Al+3                   8.505e-23   7.579e-23   -22.070   -22.120    -0.050
H(0)             1.127e-39
   H2                     5.635e-40   5.635e-40   -39.249   -39.249     0.000
K                1.273e-04
   K+                     1.273e-04   1.256e-04    -3.895    -3.901    -0.006
   KOH                    1.067e-09   1.067e-09    -8.972    -8.972     0.000
O(0)             2.626e-14
   O2                     1.313e-14   1.313e-14   -13.882   -13.882     0.000
Si               3.818e-04
   H4SiO4                 2.795e-04   2.795e-04    -3.554    -3.554     0.000
   H3SiO4-                1.023e-04   1.010e-04    -3.990    -3.996    -0.006
   H2SiO4-2               1.774e-08   1.684e-08    -7.751    -7.774    -0.023

------------------------------Saturation indices-------------------------------

	Phase               SI   log IAP  log KT

	Al(OH)3(a)       -4.75      6.05   10.80  Al(OH)3
	Chalcedony       -0.00     -3.55   -3.55  SiO2
	Gibbsite         -2.00      6.05    8.05  Al(OH)3
	H2(g)           -36.10    -39.25   -3.15  H2
	H2O(g)           -1.51     -0.00    1.51  H2O
	K-feldspar       -0.00      0.87    0.88  KAlSi3O8
	K-mica            0.00     12.97   12.97  KAl3Si3O10(OH)2
	Kaolinite        -0.72      4.99    5.71  Al2Si2O5(OH)4
	O2(g)           -10.99    -13.88   -2.89  O2
	Quartz            0.43     -3.55   -3.98  SiO2
	SiO2(a)          -0.84     -3.55   -2.71  SiO2


------------------
End of simulation.
------------------

-------------------------------------
Reading input data for simulation 10.
-------------------------------------

-----------
End of run.
-----------

