   Input file: ex6
  Output file: ex6.out
Database file: ../database/phreeqc.dat

------------------
Reading data base.
------------------

	SOLUTION_MASTER_SPECIES
	SOLUTION_SPECIES
	PHASES
	EXCHANGE_MASTER_SPECIES
	EXCHANGE_SPECIES
	SURFACE_MASTER_SPECIES
	SURFACE_SPECIES
	RATES
	END
------------------------------------
Reading input data for simulation 1.
------------------------------------

	DATABASE ../database/phreeqc.dat
	knobs
		logfile
	TITLE Example 6A.--React to phase boundaries.
	SOLUTION 1  PURE WATER
	            pH    7.0 charge
	          temp   25.0
	PHASES 1
	        Gibbsite
	                Al(OH)3 + 3 H+ = Al+3 + 3 H2O
	                log_k          8.049
	                delta_h        -22.792 kcal
	        Kaolinite
	                Al2Si2O5(OH)4 + 6 H+ = H2O + 2 H4SiO4 + 2 Al+3
	                log_k          5.708
	                delta_h        -35.306 kcal
	        Muscovite
	                KAl3Si3O10(OH)2 + 10 H+ = 3 Al+3 + 3 H4SiO4 + K+
	                log_k          12.970
	                delta_h        -59.377 kcal
	        Microcline
	                KAlSi3O8 + 4 H2O + 4 H+ = Al+3 + 3 H4SiO4 + K+
	                log_k          0.875
	                delta_h        -12.467 kcal
	END
-----
TITLE
-----

 Example 6A.--React to phase boundaries.

-------------------------------------------
Beginning of initial solution calculations.
-------------------------------------------

Initial solution 1.	PURE WATER

-----------------------------Solution composition------------------------------

	Elements           Molality       Moles

	Pure water     

----------------------------Description of solution----------------------------

                                       pH  =   6.997      Charge balance
                                       pe  =   4.000    
       Specific Conductance (uS/cm, 25 oC) = 0
                          Density (g/cm3)  =   0.99700
                        Activity of water  =   1.000
                           Ionic strength  =   1.008e-07
                       Mass of water (kg)  =   1.000e+00
                 Total alkalinity (eq/kg)  =   3.540e-17
                    Total carbon (mol/kg)  =   0.000e+00
                       Total CO2 (mol/kg)  =   0.000e+00
                      Temperature (deg C)  =  25.00
                  Electrical balance (eq)  =  -3.540e-17
 Percent error, 100*(Cat-|An|)/(Cat+|An|)  =  -0.00
                               Iterations  =   2
                                  Total H  = 1.110124e+02
                                  Total O  = 5.550622e+01

----------------------------Distribution of species----------------------------

                                            Log       Log         Log     mole V
   Species          Molality    Activity  Molality  Activity     Gamma   cm3/mol

   OH-             1.008e-07   1.008e-07    -6.997    -6.997    -0.000     -3.76
   H+              1.008e-07   1.008e-07    -6.997    -6.997    -0.000      0.00
   H2O             5.551e+01   1.000e+00     1.744    -0.000     0.000     18.07
H(0)          1.438e-25
   H2              7.189e-26   7.189e-26   -25.143   -25.143     0.000     20.00
O(0)          0.000e+00
   O2              0.000e+00   0.000e+00   -42.093   -42.093     0.000     35.00

------------------------------Saturation indices-------------------------------

	Phase               SI   log IAP   log K(298 K,   1 atm)

	H2(g)           -22.04    -25.14   -3.10  H2
	H2O(g)           -1.50     -0.00    1.50  H2O
	O2(g)           -39.20    -42.09   -2.89  O2


------------------
End of simulation.
------------------

------------------------------------
Reading input data for simulation 2.
------------------------------------

	TITLE Example 6A1.--Find amount of k-spar dissolved to 
	                    reach gibbsite saturation.
	SELECTED_OUTPUT
	        file           ex6.pun
	        activities     K+ H+ H4SiO4
	        si             Gibbsite Kaolinite Muscovite Microcline
	        equilibrium_phases    Gibbsite Kaolinite Muscovite Microcline
	USE solution 1
	EQUILIBRIUM_PHASES 1
	        Gibbsite        0.0     KAlSi3O8        10.0
	        Kaolinite       0.0     0.0
	        Muscovite       0.0     0.0
	        Microcline      0.0     0.0
	END
-----
TITLE
-----

 Example 6A1.--Find amount of k-spar dissolved to 
                    reach gibbsite saturation.

-----------------------------------------
Beginning of batch-reaction calculations.
-----------------------------------------

Reaction step 1.

Using solution 1.	PURE WATER
Using pure phase assemblage 1.	

-------------------------------Phase assemblage--------------------------------

                                                      Moles in assemblage
Phase               SI  log IAP  log K(T, P)   Initial       Final       Delta

Gibbsite          0.00     8.05      8.05
	 KAlSi3O8           is reactant       1.000e+01   1.000e+01  -2.654e-08
Kaolinite        -3.81     1.90      5.71    0.000e+00           0   0.000e+00
Microcline      -14.70   -13.82      0.88    0.000e+00           0   0.000e+00
Muscovite       -10.70     2.27     12.97    0.000e+00           0   0.000e+00

-----------------------------Solution composition------------------------------

	Elements           Molality       Moles

	Al                2.654e-08   2.654e-08
	K                 2.654e-08   2.654e-08
	Si                7.962e-08   7.962e-08

----------------------------Description of solution----------------------------

                                       pH  =   7.003      Charge balance
                                       pe  =  10.938      Adjusted to redox equilibrium
       Specific Conductance (uS/cm, 25 oC) = 0
                          Density (g/cm3)  =   0.99700
                        Activity of water  =   1.000
                           Ionic strength  =   1.268e-07
                       Mass of water (kg)  =   1.000e+00
                 Total alkalinity (eq/kg)  =   1.062e-07
                    Total carbon (mol/kg)  =   0.000e+00
                       Total CO2 (mol/kg)  =   0.000e+00
                      Temperature (deg C)  =  25.00
                  Electrical balance (eq)  =  -3.566e-17
 Percent error, 100*(Cat-|An|)/(Cat+|An|)  =  -0.00
                               Iterations  =  10
                                  Total H  = 1.110124e+02
                                  Total O  = 5.550622e+01

----------------------------Distribution of species----------------------------

                                            Log       Log         Log     mole V
   Species          Molality    Activity  Molality  Activity     Gamma   cm3/mol

   OH-             1.023e-07   1.022e-07    -6.990    -6.990    -0.000     -3.76
   H+              9.936e-08   9.932e-08    -7.003    -7.003    -0.000      0.00
   H2O             5.551e+01   1.000e+00     1.744    -0.000     0.000     18.07
Al            2.654e-08
   Al(OH)4-        2.438e-08   2.437e-08    -7.613    -7.613    -0.000     46.00
   Al(OH)3         1.284e-09   1.284e-09    -8.891    -8.891     0.000     (0)  
   Al(OH)2+        8.659e-10   8.656e-10    -9.063    -9.063    -0.000     (0)  
   AlOH+2          1.099e-11   1.097e-11   -10.959   -10.960    -0.001     (0)  
   Al+3            1.101e-13   1.097e-13   -12.958   -12.960    -0.002    -44.88
H(0)          1.854e-39
   H2              9.271e-40   9.271e-40   -39.033   -39.033     0.000     20.00
K             2.654e-08
   K+              2.654e-08   2.653e-08    -7.576    -7.576    -0.000      8.78
   KOH             9.262e-16   9.262e-16   -15.033   -15.033     0.000     (0)  
O(0)          9.701e-15
   O2              4.851e-15   4.851e-15   -14.314   -14.314     0.000     35.00
Si            7.962e-08
   H4SiO4          7.950e-08   7.950e-08    -7.100    -7.100     0.000     51.00
   H3SiO4-         1.181e-10   1.180e-10    -9.928    -9.928    -0.000     (0)  
   H2SiO4-2        8.098e-17   8.084e-17   -16.092   -16.092    -0.001     (0)  

------------------------------Saturation indices-------------------------------

	Phase               SI   log IAP   log K(298 K,   1 atm)

	Al(OH)3(a)       -2.75      8.05   10.80  Al(OH)3
	Chalcedony       -3.55     -7.10   -3.55  SiO2
	Gibbsite          0.00      8.05    8.05  Al(OH)3
	H2(g)           -35.93    -39.03   -3.10  H2
	H2O(g)           -1.50     -0.00    1.50  H2O
	K-feldspar      -15.92    -36.49  -20.57  KAlSi3O8
	K-mica          -10.43      2.27   12.70  KAl3Si3O10(OH)2
	Kaolinite        -3.81      1.90    5.71  Al2Si2O5(OH)4
	Microcline      -14.70    -13.82    0.88  KAlSi3O8
	Muscovite       -10.70      2.27   12.97  KAl3Si3O10(OH)2
	O2(g)           -11.42    -14.31   -2.89  O2
	Quartz           -3.14     -7.10   -3.96  SiO2
	SiO2(a)          -4.39     -7.10   -2.71  SiO2


------------------
End of simulation.
------------------

------------------------------------
Reading input data for simulation 3.
------------------------------------

	TITLE Example 6A2.--Find amount of k-spar dissolved to 
	                    reach kaolinite saturation.
	USE solution 1
	EQUILIBRIUM_PHASES 1
	        Gibbsite        0.0     0.0
	        Kaolinite       0.0     KAlSi3O8        10.0
	        Muscovite       0.0     0.0
	        Microcline      0.0     0.0
	END
-----
TITLE
-----

 Example 6A2.--Find amount of k-spar dissolved to 
                    reach kaolinite saturation.

-----------------------------------------
Beginning of batch-reaction calculations.
-----------------------------------------

Reaction step 1.

Using solution 1.	PURE WATER
Using pure phase assemblage 1.	

-------------------------------Phase assemblage--------------------------------

                                                      Moles in assemblage
Phase               SI  log IAP  log K(T, P)   Initial       Final       Delta

Gibbsite          0.00     8.05      8.05    0.000e+00   1.786e-06   1.786e-06
Kaolinite         0.00     5.71      5.71
	 KAlSi3O8           is reactant       1.000e+01   1.000e+01  -2.178e-06
Microcline       -5.87    -4.99      0.88    0.000e+00           0   0.000e+00
Muscovite        -1.86    11.11     12.97    0.000e+00           0   0.000e+00

-----------------------------Solution composition------------------------------

	Elements           Molality       Moles

	Al                3.925e-07   3.925e-07
	K                 2.178e-06   2.178e-06
	Si                6.535e-06   6.535e-06

----------------------------Description of solution----------------------------

                                       pH  =   8.208      Charge balance
                                       pe  =   9.701      Adjusted to redox equilibrium
       Specific Conductance (uS/cm, 25 oC) = 0
                          Density (g/cm3)  =   0.99700
                        Activity of water  =   1.000
                           Ionic strength  =   2.185e-06
                       Mass of water (kg)  =   1.000e+00
                 Total alkalinity (eq/kg)  =   3.356e-06
                    Total carbon (mol/kg)  =   0.000e+00
                       Total CO2 (mol/kg)  =   0.000e+00
                      Temperature (deg C)  =  25.00
                  Electrical balance (eq)  =  -3.544e-17
 Percent error, 100*(Cat-|An|)/(Cat+|An|)  =  -0.00
                               Iterations  =  14
                                  Total H  = 1.110124e+02
                                  Total O  = 5.550623e+01

----------------------------Distribution of species----------------------------

                                            Log       Log         Log     mole V
   Species          Molality    Activity  Molality  Activity     Gamma   cm3/mol

   OH-             1.641e-06   1.638e-06    -5.785    -5.786    -0.001     -3.76
   H+              6.209e-09   6.198e-09    -8.207    -8.208    -0.001      0.00
   H2O             5.551e+01   1.000e+00     1.744    -0.000     0.000     18.07
Al            3.925e-07
   Al(OH)4-        3.912e-07   3.905e-07    -6.408    -6.408    -0.001     46.00
   Al(OH)3         1.284e-09   1.284e-09    -8.891    -8.891     0.000     (0)  
   Al(OH)2+        5.411e-11   5.402e-11   -10.267   -10.267    -0.001     (0)  
   AlOH+2          4.301e-14   4.272e-14   -13.366   -13.369    -0.003     (0)  
   Al+3            2.707e-17   2.665e-17   -16.567   -16.574    -0.007    -44.88
H(0)          2.159e-39
   H2              1.080e-39   1.080e-39   -38.967   -38.967     0.000     20.00
K             2.178e-06
   K+              2.178e-06   2.174e-06    -5.662    -5.663    -0.001      8.78
   KOH             1.216e-12   1.216e-12   -11.915   -11.915     0.000     (0)  
O(0)          7.154e-15
   O2              3.577e-15   3.577e-15   -14.446   -14.446     0.000     35.00
Si            6.535e-06
   H4SiO4          6.383e-06   6.383e-06    -5.195    -5.195     0.000     51.00
   H3SiO4-         1.521e-07   1.518e-07    -6.818    -6.819    -0.001     (0)  
   H2SiO4-2        1.678e-12   1.666e-12   -11.775   -11.778    -0.003     (0)  

------------------------------Saturation indices-------------------------------

	Phase               SI   log IAP   log K(298 K,   1 atm)

	Al(OH)3(a)       -2.75      8.05   10.80  Al(OH)3
	Chalcedony       -1.64     -5.20   -3.55  SiO2
	Gibbsite          0.00      8.05    8.05  Al(OH)3
	H2(g)           -35.87    -38.97   -3.10  H2
	H2O(g)           -1.50     -0.00    1.50  H2O
	K-feldspar       -7.08    -27.66  -20.57  KAlSi3O8
	K-mica           -1.60     11.11   12.70  KAl3Si3O10(OH)2
	Kaolinite         0.00      5.71    5.71  Al2Si2O5(OH)4
	Microcline       -5.87     -4.99    0.88  KAlSi3O8
	Muscovite        -1.86     11.11   12.97  KAl3Si3O10(OH)2
	O2(g)           -11.55    -14.45   -2.89  O2
	Quartz           -1.24     -5.20   -3.96  SiO2
	SiO2(a)          -2.48     -5.20   -2.71  SiO2


------------------
End of simulation.
------------------

------------------------------------
Reading input data for simulation 4.
------------------------------------

	TITLE Example 6A3.--Find amount of k-spar dissolved to 
	                    reach muscovite saturation.
	USE solution 1
	EQUILIBRIUM_PHASES 1
	        Gibbsite        0.0     0.0
	        Kaolinite       0.0     0.0
	        Muscovite       0.0     KAlSi3O8        10.0
	        Microcline      0.0     0.0
	END
-----
TITLE
-----

 Example 6A3.--Find amount of k-spar dissolved to 
                    reach muscovite saturation.

-----------------------------------------
Beginning of batch-reaction calculations.
-----------------------------------------

Reaction step 1.

Using solution 1.	PURE WATER
Using pure phase assemblage 1.	

-------------------------------Phase assemblage--------------------------------

                                                      Moles in assemblage
Phase               SI  log IAP  log K(T, P)   Initial       Final       Delta

Gibbsite         -0.73     7.32      8.05    0.000e+00           0   0.000e+00
Kaolinite         0.00     5.71      5.71    0.000e+00   9.774e-06   9.774e-06
Microcline       -2.54    -1.67      0.88    0.000e+00           0   0.000e+00
Muscovite         0.00    12.97     12.97
	 KAlSi3O8           is reactant       1.000e+01   1.000e+01  -2.013e-05

-----------------------------Solution composition------------------------------

	Elements           Molality       Moles

	Al                5.783e-07   5.783e-07
	K                 2.013e-05   2.013e-05
	Si                4.083e-05   4.083e-05

----------------------------Description of solution----------------------------

                                       pH  =   9.107      Charge balance
                                       pe  =   8.802      Adjusted to redox equilibrium
       Specific Conductance (uS/cm, 25 oC) = 4
                          Density (g/cm3)  =   0.99700
                        Activity of water  =   1.000
                           Ionic strength  =   2.013e-05
                       Mass of water (kg)  =   1.000e+00
                 Total alkalinity (eq/kg)  =   2.186e-05
                    Total carbon (mol/kg)  =   0.000e+00
                       Total CO2 (mol/kg)  =   0.000e+00
                      Temperature (deg C)  =  25.00
                  Electrical balance (eq)  =   1.325e-15
 Percent error, 100*(Cat-|An|)/(Cat+|An|)  =   0.00
                               Iterations  =  13
                                  Total H  = 1.110124e+02
                                  Total O  = 5.550629e+01

----------------------------Distribution of species----------------------------

                                            Log       Log         Log     mole V
   Species          Molality    Activity  Molality  Activity     Gamma   cm3/mol

   OH-             1.305e-05   1.298e-05    -4.885    -4.887    -0.002     -3.76
   H+              7.866e-10   7.825e-10    -9.104    -9.107    -0.002      0.00
   H2O             5.551e+01   1.000e+00     1.744    -0.000     0.000     18.07
Al            5.783e-07
   Al(OH)4-        5.781e-07   5.750e-07    -6.238    -6.240    -0.002     46.00
   Al(OH)3         2.387e-10   2.388e-10    -9.622    -9.622     0.000     (0)  
   Al(OH)2+        1.275e-12   1.268e-12   -11.895   -11.897    -0.002     (0)  
   AlOH+2          1.293e-16   1.266e-16   -15.888   -15.898    -0.009     (0)  
   Al+3            1.045e-20   9.973e-21   -19.981   -20.001    -0.020    -44.85
H(0)          2.159e-39
   H2              1.080e-39   1.080e-39   -38.967   -38.967     0.000     20.00
K             2.013e-05
   K+              2.013e-05   2.002e-05    -4.696    -4.699    -0.002      8.78
   KOH             8.871e-11   8.872e-11   -10.052   -10.052     0.000     (0)  
O(0)          7.154e-15
   O2              3.577e-15   3.577e-15   -14.446   -14.446     0.000     35.00
Si            4.083e-05
   H4SiO4          3.433e-05   3.433e-05    -4.464    -4.464     0.000     51.00
   H3SiO4-         6.503e-06   6.469e-06    -5.187    -5.189    -0.002     (0)  
   H2SiO4-2        5.742e-10   5.623e-10    -9.241    -9.250    -0.009     (0)  

------------------------------Saturation indices-------------------------------

	Phase               SI   log IAP   log K(298 K,   1 atm)

	Al(OH)3(a)       -3.48      7.32   10.80  Al(OH)3
	Chalcedony       -0.91     -4.46   -3.55  SiO2
	Gibbsite         -0.73      7.32    8.05  Al(OH)3
	H2(g)           -35.87    -38.97   -3.10  H2
	H2O(g)           -1.50     -0.00    1.50  H2O
	K-feldspar       -3.76    -24.33  -20.57  KAlSi3O8
	K-mica            0.27     12.97   12.70  KAl3Si3O10(OH)2
	Kaolinite         0.00      5.71    5.71  Al2Si2O5(OH)4
	Microcline       -2.54     -1.67    0.88  KAlSi3O8
	Muscovite         0.00     12.97   12.97  KAl3Si3O10(OH)2
	O2(g)           -11.55    -14.45   -2.89  O2
	Quartz           -0.51     -4.46   -3.96  SiO2
	SiO2(a)          -1.75     -4.46   -2.71  SiO2


------------------
End of simulation.
------------------

------------------------------------
Reading input data for simulation 5.
------------------------------------

	TITLE Example 6A4.--Find amount of k-spar dissolved to 
	                    reach k-spar saturation.
	USE solution 1
	EQUILIBRIUM_PHASES 1
	        Gibbsite        0.0     0.0
	        Kaolinite       0.0     0.0
	        Muscovite       0.0     0.0
	        Microcline      0.0     10.0
	END
-----
TITLE
-----

 Example 6A4.--Find amount of k-spar dissolved to 
                    reach k-spar saturation.

-----------------------------------------
Beginning of batch-reaction calculations.
-----------------------------------------

Reaction step 1.

Using solution 1.	PURE WATER
Using pure phase assemblage 1.	

-------------------------------Phase assemblage--------------------------------

                                                      Moles in assemblage
Phase               SI  log IAP  log K(T, P)   Initial       Final       Delta

Gibbsite         -2.00     6.05      8.05    0.000e+00           0   0.000e+00
Kaolinite        -0.72     4.99      5.71    0.000e+00           0   0.000e+00
Microcline        0.00     0.88      0.88    1.000e+01   1.000e+01  -1.909e-04
Muscovite         0.00    12.97     12.97    0.000e+00   6.362e-05   6.362e-05

-----------------------------Solution composition------------------------------

	Elements           Molality       Moles

	Al                5.968e-08   5.968e-08
	K                 1.273e-04   1.273e-04
	Si                3.819e-04   3.819e-04

----------------------------Description of solution----------------------------

                                       pH  =   9.388      Charge balance
                                       pe  =   8.521      Adjusted to redox equilibrium
       Specific Conductance (uS/cm, 25 oC) = 14
                          Density (g/cm3)  =   0.99703
                        Activity of water  =   1.000
                           Ionic strength  =   1.273e-04
                       Mass of water (kg)  =   1.000e+00
                 Total alkalinity (eq/kg)  =   1.275e-04
                    Total carbon (mol/kg)  =   0.000e+00
                       Total CO2 (mol/kg)  =   0.000e+00
                      Temperature (deg C)  =  25.00
                  Electrical balance (eq)  =  -3.202e-15
 Percent error, 100*(Cat-|An|)/(Cat+|An|)  =  -0.00
                               Iterations  =  15
                                  Total H  = 1.110123e+02
                                  Total O  = 5.550698e+01

----------------------------Distribution of species----------------------------

                                            Log       Log         Log     mole V
   Species          Molality    Activity  Molality  Activity     Gamma   cm3/mol

   OH-             2.513e-05   2.480e-05    -4.600    -4.606    -0.006     -3.75
   H+              4.148e-10   4.095e-10    -9.382    -9.388    -0.006      0.00
   H2O             5.551e+01   1.000e+00     1.744    -0.000     0.000     18.07
Al            5.968e-08
   Al(OH)4-        5.967e-08   5.890e-08    -7.224    -7.230    -0.006     46.01
   Al(OH)3         1.280e-11   1.280e-11   -10.893   -10.893     0.000     (0)  
   Al(OH)2+        3.603e-14   3.556e-14   -13.443   -13.449    -0.006     (0)  
   AlOH+2          1.958e-18   1.858e-18   -17.708   -17.731    -0.023     (0)  
   Al+3            8.597e-23   7.660e-23   -22.066   -22.116    -0.050    -44.79
H(0)          2.159e-39
   H2              1.079e-39   1.080e-39   -38.967   -38.967     0.000     20.00
K             1.273e-04
   K+              1.273e-04   1.256e-04    -3.895    -3.901    -0.006      8.79
   KOH             1.064e-09   1.064e-09    -8.973    -8.973     0.000     (0)  
O(0)          7.154e-15
   O2              3.577e-15   3.577e-15   -14.446   -14.446     0.000     35.00
Si            3.819e-04
   H4SiO4          2.798e-04   2.798e-04    -3.553    -3.553     0.000     51.00
   H3SiO4-         1.021e-04   1.008e-04    -3.991    -3.997    -0.006     (0)  
   H2SiO4-2        1.763e-08   1.674e-08    -7.754    -7.776    -0.023     (0)  

------------------------------Saturation indices-------------------------------

	Phase               SI   log IAP   log K(298 K,   1 atm)

	Al(OH)3(a)       -4.75      6.05   10.80  Al(OH)3
	Chalcedony       -0.00     -3.55   -3.55  SiO2
	Gibbsite         -2.00      6.05    8.05  Al(OH)3
	H2(g)           -35.87    -38.97   -3.10  H2
	H2O(g)           -1.50     -0.00    1.50  H2O
	K-feldspar       -1.22    -21.79  -20.57  KAlSi3O8
	K-mica            0.27     12.97   12.70  KAl3Si3O10(OH)2
	Kaolinite        -0.72      4.99    5.71  Al2Si2O5(OH)4
	Microcline        0.00      0.88    0.88  KAlSi3O8
	Muscovite         0.00     12.97   12.97  KAl3Si3O10(OH)2
	O2(g)           -11.55    -14.45   -2.89  O2
	Quartz            0.40     -3.55   -3.96  SiO2
	SiO2(a)          -0.84     -3.55   -2.71  SiO2


------------------
End of simulation.
------------------

------------------------------------
Reading input data for simulation 6.
------------------------------------

	TITLE 
	Example 6A5.--Find point with kaolinite present, 
	              but no gibbsite.
	USE solution 1
	EQUILIBRIUM_PHASES 1
	        Gibbsite        0.0     KAlSi3O8        10.0
	        Kaolinite       0.0     1.0
	END
-----
TITLE
-----

Example 6A5.--Find point with kaolinite present, 
              but no gibbsite.

-----------------------------------------
Beginning of batch-reaction calculations.
-----------------------------------------

Reaction step 1.

Using solution 1.	PURE WATER
Using pure phase assemblage 1.	

-------------------------------Phase assemblage--------------------------------

                                                      Moles in assemblage
Phase               SI  log IAP  log K(T, P)   Initial       Final       Delta

Gibbsite         -0.00     8.05      8.05
	 KAlSi3O8           is reactant       1.000e+01   1.000e+01  -3.025e-06
Kaolinite        -0.00     5.71      5.71    1.000e+00   1.000e+00   1.241e-06

-----------------------------Solution composition------------------------------

	Elements           Molality       Moles

	Al                5.438e-07   5.438e-07
	K                 3.025e-06   3.025e-06
	Si                6.594e-06   6.594e-06

----------------------------Description of solution----------------------------

                                       pH  =   8.350      Charge balance
                                       pe  =   9.559      Adjusted to redox equilibrium
       Specific Conductance (uS/cm, 25 oC) = 0
                          Density (g/cm3)  =   0.99700
                        Activity of water  =   1.000
                           Ionic strength  =   3.029e-06
                       Mass of water (kg)  =   1.000e+00
                 Total alkalinity (eq/kg)  =   4.656e-06
                    Total carbon (mol/kg)  =   0.000e+00
                       Total CO2 (mol/kg)  =   0.000e+00
                      Temperature (deg C)  =  25.00
                  Electrical balance (eq)  =  -5.882e-16
 Percent error, 100*(Cat-|An|)/(Cat+|An|)  =  -0.00
                               Iterations  =  12
                                  Total H  = 1.110124e+02
                                  Total O  = 5.550623e+01

----------------------------Distribution of species----------------------------

                                            Log       Log         Log     mole V
   Species          Molality    Activity  Molality  Activity     Gamma   cm3/mol

   OH-             2.276e-06   2.271e-06    -5.643    -5.644    -0.001     -3.76
   H+              4.480e-09   4.471e-09    -8.349    -8.350    -0.001      0.00
   H2O             5.551e+01   1.000e+00     1.744    -0.000     0.000     18.07
Al            5.438e-07
   Al(OH)4-        5.424e-07   5.413e-07    -6.266    -6.267    -0.001     46.00
   Al(OH)3         1.284e-09   1.284e-09    -8.891    -8.891     0.000     (0)  
   Al(OH)2+        3.904e-11   3.896e-11   -10.408   -10.409    -0.001     (0)  
   AlOH+2          2.241e-14   2.223e-14   -13.650   -13.653    -0.004     (0)  
   Al+3            1.019e-17   1.000e-17   -16.992   -17.000    -0.008    -44.87
H(0)          2.159e-39
   H2              1.080e-39   1.080e-39   -38.967   -38.967     0.000     20.00
K             3.025e-06
   K+              3.025e-06   3.019e-06    -5.519    -5.520    -0.001      8.78
   KOH             2.341e-12   2.341e-12   -11.631   -11.631     0.000     (0)  
O(0)          7.154e-15
   O2              3.577e-15   3.577e-15   -14.446   -14.446     0.000     35.00
Si            6.594e-06
   H4SiO4          6.383e-06   6.383e-06    -5.195    -5.195     0.000     51.00
   H3SiO4-         2.109e-07   2.105e-07    -6.676    -6.677    -0.001     (0)  
   H2SiO4-2        3.229e-12   3.203e-12   -11.491   -11.494    -0.004     (0)  

------------------------------Saturation indices-------------------------------

	Phase               SI   log IAP   log K(298 K,   1 atm)

	Al(OH)3(a)       -2.75      8.05   10.80  Al(OH)3
	Chalcedony       -1.64     -5.20   -3.55  SiO2
	Gibbsite         -0.00      8.05    8.05  Al(OH)3
	H2(g)           -35.87    -38.97   -3.10  H2
	H2O(g)           -1.50     -0.00    1.50  H2O
	K-feldspar       -6.80    -27.37  -20.57  KAlSi3O8
	K-mica           -1.31     11.39   12.70  KAl3Si3O10(OH)2
	Kaolinite        -0.00      5.71    5.71  Al2Si2O5(OH)4
	Microcline       -5.58     -4.71    0.88  KAlSi3O8
	Muscovite        -1.58     11.39   12.97  KAl3Si3O10(OH)2
	O2(g)           -11.55    -14.45   -2.89  O2
	Quartz           -1.24     -5.20   -3.96  SiO2
	SiO2(a)          -2.48     -5.20   -2.71  SiO2


------------------
End of simulation.
------------------

------------------------------------
Reading input data for simulation 7.
------------------------------------

	TITLE 
	Example 6A6.--Find point with muscovite present, 
	              but no kaolinite
	USE solution 1
	EQUILIBRIUM_PHASES 1
	        Kaolinite       0.0     KAlSi3O8        10.0
	        Muscovite       0.0     1.0
	END
-----
TITLE
-----

Example 6A6.--Find point with muscovite present, 
              but no kaolinite

-----------------------------------------
Beginning of batch-reaction calculations.
-----------------------------------------

Reaction step 1.

Using solution 1.	PURE WATER
Using pure phase assemblage 1.	

-------------------------------Phase assemblage--------------------------------

                                                      Moles in assemblage
Phase               SI  log IAP  log K(T, P)   Initial       Final       Delta

Kaolinite        -0.00     5.71      5.71
	 KAlSi3O8           is reactant       1.000e+01   1.000e+01  -3.285e-05
Muscovite         0.00    12.97     12.97    1.000e+00   1.000e+00   1.084e-05

-----------------------------Solution composition------------------------------

	Elements           Molality       Moles

	Al                3.227e-07   3.227e-07
	K                 2.201e-05   2.201e-05
	Si                6.603e-05   6.603e-05

----------------------------Description of solution----------------------------

                                       pH  =   9.068      Charge balance
                                       pe  =   8.841      Adjusted to redox equilibrium
       Specific Conductance (uS/cm, 25 oC) = 3
                          Density (g/cm3)  =   0.99700
                        Activity of water  =   1.000
                           Ionic strength  =   2.201e-05
                       Mass of water (kg)  =   1.000e+00
                 Total alkalinity (eq/kg)  =   2.298e-05
                    Total carbon (mol/kg)  =   0.000e+00
                       Total CO2 (mol/kg)  =   0.000e+00
                      Temperature (deg C)  =  25.00
                  Electrical balance (eq)  =  -3.538e-17
 Percent error, 100*(Cat-|An|)/(Cat+|An|)  =  -0.00
                               Iterations  =  13
                                  Total H  = 1.110124e+02
                                  Total O  = 5.550635e+01

----------------------------Distribution of species----------------------------

                                            Log       Log         Log     mole V
   Species          Molality    Activity  Molality  Activity     Gamma   cm3/mol

   OH-             1.193e-05   1.187e-05    -4.923    -4.926    -0.002     -3.76
   H+              8.602e-10   8.556e-10    -9.065    -9.068    -0.002      0.00
   H2O             5.551e+01   1.000e+00     1.744    -0.000     0.000     18.07
Al            3.227e-07
   Al(OH)4-        3.226e-07   3.208e-07    -6.491    -6.494    -0.002     46.00
   Al(OH)3         1.456e-10   1.456e-10    -9.837    -9.837     0.000     (0)  
   Al(OH)2+        8.503e-13   8.456e-13   -12.070   -12.073    -0.002     (0)  
   AlOH+2          9.435e-17   9.231e-17   -16.025   -16.035    -0.010     (0)  
   Al+3            8.349e-21   7.951e-21   -20.078   -20.100    -0.021    -44.85
H(0)          2.159e-39
   H2              1.080e-39   1.080e-39   -38.967   -38.967     0.000     20.00
K             2.201e-05
   K+              2.201e-05   2.189e-05    -4.657    -4.660    -0.002      8.78
   KOH             8.871e-11   8.872e-11   -10.052   -10.052     0.000     (0)  
O(0)          7.154e-15
   O2              3.577e-15   3.577e-15   -14.446   -14.446     0.000     35.00
Si            6.603e-05
   H4SiO4          5.628e-05   5.628e-05    -4.250    -4.250     0.000     51.00
   H3SiO4-         9.752e-06   9.699e-06    -5.011    -5.013    -0.002     (0)  
   H2SiO4-2        7.882e-10   7.712e-10    -9.103    -9.113    -0.010     (0)  

------------------------------Saturation indices-------------------------------

	Phase               SI   log IAP   log K(298 K,   1 atm)

	Al(OH)3(a)       -3.70      7.10   10.80  Al(OH)3
	Chalcedony       -0.70     -4.25   -3.55  SiO2
	Gibbsite         -0.95      7.10    8.05  Al(OH)3
	H2(g)           -35.87    -38.97   -3.10  H2
	H2O(g)           -1.50     -0.00    1.50  H2O
	K-feldspar       -3.33    -23.90  -20.57  KAlSi3O8
	K-mica            0.27     12.97   12.70  KAl3Si3O10(OH)2
	Kaolinite        -0.00      5.71    5.71  Al2Si2O5(OH)4
	Microcline       -2.11     -1.24    0.88  KAlSi3O8
	Muscovite         0.00     12.97   12.97  KAl3Si3O10(OH)2
	O2(g)           -11.55    -14.45   -2.89  O2
	Quartz           -0.29     -4.25   -3.96  SiO2
	SiO2(a)          -1.54     -4.25   -2.71  SiO2


------------------
End of simulation.
------------------

------------------------------------
Reading input data for simulation 8.
------------------------------------

	TITLE Example 6B.--Path between phase boundaries.
	USE solution 1
	EQUILIBRIUM_PHASES 1
	        Kaolinite       0.0     0.0
	        Gibbsite        0.0     0.0
	        Muscovite       0.0     0.0
	        Microcline      0.0     0.0
	REACTION 1
	        Microcline      1.0
	        0.04 0.08 0.16 0.32 0.64 1.0 2.0 4.0 
	        8.0 16.0 32.0 40.0 50.0 umol
	END
-----
TITLE
-----

 Example 6B.--Path between phase boundaries.

-----------------------------------------
Beginning of batch-reaction calculations.
-----------------------------------------

Reaction step 1.

Using solution 1.	PURE WATER
Using pure phase assemblage 1.	
Using reaction 1.	

Reaction 1.	

	  4.000e-08 moles of the following reaction have been added:

	                 Relative
	Reactant            moles

	Microcline           1.00000

	                 Relative
	Element             moles
	Al                   1.00000
	K                    1.00000
	O                    8.00000
	Si                   3.00000

-------------------------------Phase assemblage--------------------------------

                                                      Moles in assemblage
Phase               SI  log IAP  log K(T, P)   Initial       Final       Delta

Gibbsite          0.00     8.05      8.05    0.000e+00   1.204e-08   1.204e-08
Kaolinite        -3.45     2.25      5.71    0.000e+00           0   0.000e+00
Microcline      -13.96   -13.09      0.88    0.000e+00           0   0.000e+00
Muscovite        -9.96     3.01     12.97    0.000e+00           0   0.000e+00

-----------------------------Solution composition------------------------------

	Elements           Molality       Moles

	Al                2.796e-08   2.796e-08
	K                 4.000e-08   4.000e-08
	Si                1.200e-07   1.200e-07

----------------------------Description of solution----------------------------

                                       pH  =   7.028      Charge balance
                                       pe  =  10.965      Adjusted to redox equilibrium
       Specific Conductance (uS/cm, 25 oC) = 0
                          Density (g/cm3)  =   0.99700
                        Activity of water  =   1.000
                           Ionic strength  =   1.345e-07
                       Mass of water (kg)  =   1.000e+00
                 Total alkalinity (eq/kg)  =   1.239e-07
                    Total carbon (mol/kg)  =   0.000e+00
                       Total CO2 (mol/kg)  =   0.000e+00
                      Temperature (deg C)  =  25.00
                  Electrical balance (eq)  =  -3.541e-17
 Percent error, 100*(Cat-|An|)/(Cat+|An|)  =  -0.00
                               Iterations  =  10
                                  Total H  = 1.110124e+02
                                  Total O  = 5.550622e+01

----------------------------Distribution of species----------------------------

                                            Log       Log         Log     mole V
   Species          Molality    Activity  Molality  Activity     Gamma   cm3/mol

   OH-             1.085e-07   1.084e-07    -6.965    -6.965    -0.000     -3.76
   H+              9.369e-08   9.365e-08    -7.028    -7.028    -0.000      0.00
   H2O             5.551e+01   1.000e+00     1.744    -0.000     0.000     18.07
Al            2.796e-08
   Al(OH)4-        2.585e-08   2.584e-08    -7.587    -7.588    -0.000     46.00
   Al(OH)3         1.284e-09   1.284e-09    -8.891    -8.891     0.000     (0)  
   Al(OH)2+        8.165e-10   8.162e-10    -9.088    -9.088    -0.000     (0)  
   AlOH+2          9.769e-12   9.752e-12   -11.010   -11.011    -0.001     (0)  
   Al+3            9.230e-14   9.194e-14   -13.035   -13.036    -0.002    -44.88
H(0)          1.458e-39
   H2              7.292e-40   7.292e-40   -39.137   -39.137     0.000     20.00
K             4.000e-08
   K+              4.000e-08   3.998e-08    -7.398    -7.398    -0.000      8.78
   KOH             1.480e-15   1.480e-15   -14.830   -14.830     0.000     (0)  
O(0)          1.568e-14
   O2              7.840e-15   7.840e-15   -14.106   -14.106     0.000     35.00
Si            1.200e-07
   H4SiO4          1.198e-07   1.198e-07    -6.922    -6.922     0.000     51.00
   H3SiO4-         1.887e-10   1.886e-10    -9.724    -9.724    -0.000     (0)  
   H2SiO4-2        1.373e-16   1.370e-16   -15.862   -15.863    -0.001     (0)  

------------------------------Saturation indices-------------------------------

	Phase               SI   log IAP   log K(298 K,   1 atm)

	Al(OH)3(a)       -2.75      8.05   10.80  Al(OH)3
	Chalcedony       -3.37     -6.92   -3.55  SiO2
	Gibbsite          0.00      8.05    8.05  Al(OH)3
	H2(g)           -36.04    -39.14   -3.10  H2
	H2O(g)           -1.50     -0.00    1.50  H2O
	K-feldspar      -15.18    -35.75  -20.57  KAlSi3O8
	K-mica           -9.69      3.01   12.70  KAl3Si3O10(OH)2
	Kaolinite        -3.45      2.25    5.71  Al2Si2O5(OH)4
	Microcline      -13.96    -13.09    0.88  KAlSi3O8
	Muscovite        -9.96      3.01   12.97  KAl3Si3O10(OH)2
	O2(g)           -11.21    -14.11   -2.89  O2
	Quartz           -2.96     -6.92   -3.96  SiO2
	SiO2(a)          -4.21     -6.92   -2.71  SiO2


Reaction step 2.

Using solution 1.	PURE WATER
Using pure phase assemblage 1.	
Using reaction 1.	

Reaction 1.	

	  8.000e-08 moles of the following reaction have been added:

	                 Relative
	Reactant            moles

	Microcline           1.00000

	                 Relative
	Element             moles
	Al                   1.00000
	K                    1.00000
	O                    8.00000
	Si                   3.00000

-------------------------------Phase assemblage--------------------------------

                                                      Moles in assemblage
Phase               SI  log IAP  log K(T, P)   Initial       Final       Delta

Gibbsite         -0.00     8.05      8.05    0.000e+00   4.737e-08   4.737e-08
Kaolinite        -2.85     2.86      5.71    0.000e+00           0   0.000e+00
Microcline      -12.68   -11.81      0.88    0.000e+00           0   0.000e+00
Muscovite        -8.68     4.29     12.97    0.000e+00           0   0.000e+00

-----------------------------Solution composition------------------------------

	Elements           Molality       Moles

	Al                3.263e-08   3.263e-08
	K                 8.000e-08   8.000e-08
	Si                2.400e-07   2.400e-07

----------------------------Description of solution----------------------------

                                       pH  =   7.102      Charge balance
                                       pe  =  11.396      Adjusted to redox equilibrium
       Specific Conductance (uS/cm, 25 oC) = 0
                          Density (g/cm3)  =   0.99700
                        Activity of water  =   1.000
                           Ionic strength  =   1.597e-07
                       Mass of water (kg)  =   1.000e+00
                 Total alkalinity (eq/kg)  =   1.779e-07
                    Total carbon (mol/kg)  =   0.000e+00
                       Total CO2 (mol/kg)  =   0.000e+00
                      Temperature (deg C)  =  25.00
                  Electrical balance (eq)  =  -3.541e-17
 Percent error, 100*(Cat-|An|)/(Cat+|An|)  =  -0.00
                               Iterations  =  10
                                  Total H  = 1.110124e+02
                                  Total O  = 5.550622e+01

----------------------------Distribution of species----------------------------

                                            Log       Log         Log     mole V
   Species          Molality    Activity  Molality  Activity     Gamma   cm3/mol

   OH-             1.286e-07   1.286e-07    -6.891    -6.891    -0.000     -3.76
   H+              7.902e-08   7.899e-08    -7.102    -7.102    -0.000      0.00
   H2O             5.551e+01   1.000e+00     1.744    -0.000     0.000     18.07
Al            3.263e-08
   Al(OH)4-        3.065e-08   3.064e-08    -7.513    -7.514    -0.000     46.00
   Al(OH)3         1.284e-09   1.284e-09    -8.891    -8.891     0.000     (0)  
   Al(OH)2+        6.887e-10   6.884e-10    -9.162    -9.162    -0.000     (0)  
   AlOH+2          6.950e-12   6.937e-12   -11.158   -11.159    -0.001     (0)  
   Al+3            5.540e-14   5.517e-14   -13.256   -13.258    -0.002    -44.88
H(0)          0.000e+00
   H2              0.000e+00   0.000e+00   -40.146   -40.146     0.000     20.00
K             8.000e-08
   K+              8.000e-08   7.996e-08    -7.097    -7.097    -0.000      8.78
   KOH             3.510e-15   3.510e-15   -14.455   -14.455     0.000     (0)  
O(0)          1.635e-12
   O2              8.177e-13   8.177e-13   -12.087   -12.087     0.000     35.00
Si            2.400e-07
   H4SiO4          2.396e-07   2.396e-07    -6.621    -6.621     0.000     51.00
   H3SiO4-         4.474e-10   4.472e-10    -9.349    -9.350    -0.000     (0)  
   H2SiO4-2        3.858e-16   3.851e-16   -15.414   -15.414    -0.001     (0)  

------------------------------Saturation indices-------------------------------

	Phase               SI   log IAP   log K(298 K,   1 atm)

	Al(OH)3(a)       -2.75      8.05   10.80  Al(OH)3
	Chalcedony       -3.07     -6.62   -3.55  SiO2
	Gibbsite         -0.00      8.05    8.05  Al(OH)3
	H2(g)           -37.05    -40.15   -3.10  H2
	H2O(g)           -1.50     -0.00    1.50  H2O
	K-feldspar      -13.90    -34.47  -20.57  KAlSi3O8
	K-mica           -8.41      4.29   12.70  KAl3Si3O10(OH)2
	Kaolinite        -2.85      2.86    5.71  Al2Si2O5(OH)4
	Microcline      -12.68    -11.81    0.88  KAlSi3O8
	Muscovite        -8.68      4.29   12.97  KAl3Si3O10(OH)2
	O2(g)            -9.20    -12.09   -2.89  O2
	Quartz           -2.66     -6.62   -3.96  SiO2
	SiO2(a)          -3.91     -6.62   -2.71  SiO2


Reaction step 3.

Using solution 1.	PURE WATER
Using pure phase assemblage 1.	
Using reaction 1.	

Reaction 1.	

	  1.600e-07 moles of the following reaction have been added:

	                 Relative
	Reactant            moles

	Microcline           1.00000

	                 Relative
	Element             moles
	Al                   1.00000
	K                    1.00000
	O                    8.00000
	Si                   3.00000

-------------------------------Phase assemblage--------------------------------

                                                      Moles in assemblage
Phase               SI  log IAP  log K(T, P)   Initial       Final       Delta

Gibbsite          0.00     8.05      8.05    0.000e+00   1.164e-07   1.164e-07
Kaolinite        -2.25     3.46      5.71    0.000e+00           0   0.000e+00
Microcline      -11.34   -10.47      0.88    0.000e+00           0   0.000e+00
Muscovite        -7.34     5.63     12.97    0.000e+00           0   0.000e+00

-----------------------------Solution composition------------------------------

	Elements           Molality       Moles

	Al                4.360e-08   4.360e-08
	K                 1.600e-07   1.600e-07
	Si                4.800e-07   4.800e-07

----------------------------Description of solution----------------------------

                                       pH  =   7.237      Charge balance
                                       pe  =  10.951      Adjusted to redox equilibrium
       Specific Conductance (uS/cm, 25 oC) = 0
                          Density (g/cm3)  =   0.99700
                        Activity of water  =   1.000
                           Ionic strength  =   2.185e-07
                       Mass of water (kg)  =   1.000e+00
                 Total alkalinity (eq/kg)  =   2.908e-07
                    Total carbon (mol/kg)  =   0.000e+00
                       Total CO2 (mol/kg)  =   0.000e+00
                      Temperature (deg C)  =  25.00
                  Electrical balance (eq)  =  -3.540e-17
 Percent error, 100*(Cat-|An|)/(Cat+|An|)  =  -0.00
                               Iterations  =  10
                                  Total H  = 1.110124e+02
                                  Total O  = 5.550622e+01

----------------------------Distribution of species----------------------------

                                            Log       Log         Log     mole V
   Species          Molality    Activity  Molality  Activity     Gamma   cm3/mol

   OH-             1.754e-07   1.753e-07    -6.756    -6.756    -0.000     -3.76
   H+              5.795e-08   5.792e-08    -7.237    -7.237    -0.000      0.00
   H2O             5.551e+01   1.000e+00     1.744    -0.000     0.000     18.07
Al            4.360e-08
   Al(OH)4-        4.181e-08   4.179e-08    -7.379    -7.379    -0.000     46.00
   Al(OH)3         1.284e-09   1.284e-09    -8.891    -8.891     0.000     (0)  
   Al(OH)2+        5.050e-10   5.048e-10    -9.297    -9.297    -0.000     (0)  
   AlOH+2          3.738e-12   3.730e-12   -11.427   -11.428    -0.001     (0)  
   Al+3            2.186e-14   2.175e-14   -13.660   -13.663    -0.002    -44.88
H(0)          5.960e-40
   H2              2.980e-40   2.980e-40   -39.526   -39.526     0.000     20.00
K             1.600e-07
   K+              1.600e-07   1.599e-07    -6.796    -6.796    -0.000      8.78
   KOH             9.574e-15   9.574e-15   -14.019   -14.019     0.000     (0)  
O(0)          9.389e-14
   O2              4.694e-14   4.694e-14   -13.328   -13.328     0.000     35.00
Si            4.800e-07
   H4SiO4          4.788e-07   4.788e-07    -6.320    -6.320     0.000     51.00
   H3SiO4-         1.220e-09   1.219e-09    -8.914    -8.914    -0.000     (0)  
   H2SiO4-2        1.435e-15   1.432e-15   -14.843   -14.844    -0.001     (0)  

------------------------------Saturation indices-------------------------------

	Phase               SI   log IAP   log K(298 K,   1 atm)

	Al(OH)3(a)       -2.75      8.05   10.80  Al(OH)3
	Chalcedony       -2.77     -6.32   -3.55  SiO2
	Gibbsite          0.00      8.05    8.05  Al(OH)3
	H2(g)           -36.42    -39.53   -3.10  H2
	H2O(g)           -1.50     -0.00    1.50  H2O
	K-feldspar      -12.56    -33.13  -20.57  KAlSi3O8
	K-mica           -7.07      5.63   12.70  KAl3Si3O10(OH)2
	Kaolinite        -2.25      3.46    5.71  Al2Si2O5(OH)4
	Microcline      -11.34    -10.47    0.88  KAlSi3O8
	Muscovite        -7.34      5.63   12.97  KAl3Si3O10(OH)2
	O2(g)           -10.44    -13.33   -2.89  O2
	Quartz           -2.36     -6.32   -3.96  SiO2
	SiO2(a)          -3.61     -6.32   -2.71  SiO2


Reaction step 4.

Using solution 1.	PURE WATER
Using pure phase assemblage 1.	
Using reaction 1.	

Reaction 1.	

	  3.200e-07 moles of the following reaction have been added:

	                 Relative
	Reactant            moles

	Microcline           1.00000

	                 Relative
	Element             moles
	Al                   1.00000
	K                    1.00000
	O                    8.00000
	Si                   3.00000

-------------------------------Phase assemblage--------------------------------

                                                      Moles in assemblage
Phase               SI  log IAP  log K(T, P)   Initial       Final       Delta

Gibbsite         -0.00     8.05      8.05    0.000e+00   2.506e-07   2.506e-07
Kaolinite        -1.65     4.06      5.71    0.000e+00           0   0.000e+00
Microcline       -9.93    -9.06      0.88    0.000e+00           0   0.000e+00
Muscovite        -5.93     7.04     12.97    0.000e+00           0   0.000e+00

-----------------------------Solution composition------------------------------

	Elements           Molality       Moles

	Al                6.937e-08   6.937e-08
	K                 3.200e-07   3.200e-07
	Si                9.600e-07   9.600e-07

----------------------------Description of solution----------------------------

                                       pH  =   7.447      Charge balance
                                       pe  =  10.634      Adjusted to redox equilibrium
       Specific Conductance (uS/cm, 25 oC) = 0
                          Density (g/cm3)  =   0.99700
                        Activity of water  =   1.000
                           Ionic strength  =   3.561e-07
                       Mass of water (kg)  =   1.000e+00
                 Total alkalinity (eq/kg)  =   5.281e-07
                    Total carbon (mol/kg)  =   0.000e+00
                       Total CO2 (mol/kg)  =   0.000e+00
                      Temperature (deg C)  =  25.00
                  Electrical balance (eq)  =  -3.544e-17
 Percent error, 100*(Cat-|An|)/(Cat+|An|)  =  -0.00
                               Iterations  =  10
                                  Total H  = 1.110124e+02
                                  Total O  = 5.550622e+01

----------------------------Distribution of species----------------------------

                                            Log       Log         Log     mole V
   Species          Molality    Activity  Molality  Activity     Gamma   cm3/mol

   OH-             2.844e-07   2.842e-07    -6.546    -6.546    -0.000     -3.76
   H+              3.576e-08   3.574e-08    -7.447    -7.447    -0.000      0.00
   H2O             5.551e+01   1.000e+00     1.744    -0.000     0.000     18.07
Al            6.937e-08
   Al(OH)4-        6.777e-08   6.772e-08    -7.169    -7.169    -0.000     46.00
   Al(OH)3         1.284e-09   1.284e-09    -8.891    -8.891     0.000     (0)  
   Al(OH)2+        3.117e-10   3.114e-10    -9.506    -9.507    -0.000     (0)  
   AlOH+2          1.424e-12   1.420e-12   -11.846   -11.848    -0.001     (0)  
   Al+3            5.141e-15   5.109e-15   -14.289   -14.292    -0.003    -44.88
H(0)          9.747e-40
   H2              4.874e-40   4.874e-40   -39.312   -39.312     0.000     20.00
K             3.200e-07
   K+              3.200e-07   3.198e-07    -6.495    -6.495    -0.000      8.78
   KOH             3.103e-14   3.103e-14   -13.508   -13.508     0.000     (0)  
O(0)          3.510e-14
   O2              1.755e-14   1.755e-14   -13.756   -13.756     0.000     35.00
Si            9.600e-07
   H4SiO4          9.561e-07   9.561e-07    -6.020    -6.020     0.000     51.00
   H3SiO4-         3.947e-09   3.945e-09    -8.404    -8.404    -0.000     (0)  
   H2SiO4-2        7.530e-15   7.509e-15   -14.123   -14.124    -0.001     (0)  

------------------------------Saturation indices-------------------------------

	Phase               SI   log IAP   log K(298 K,   1 atm)

	Al(OH)3(a)       -2.75      8.05   10.80  Al(OH)3
	Chalcedony       -2.47     -6.02   -3.55  SiO2
	Gibbsite         -0.00      8.05    8.05  Al(OH)3
	H2(g)           -36.21    -39.31   -3.10  H2
	H2O(g)           -1.50     -0.00    1.50  H2O
	K-feldspar      -11.15    -31.72  -20.57  KAlSi3O8
	K-mica           -5.66      7.04   12.70  KAl3Si3O10(OH)2
	Kaolinite        -1.65      4.06    5.71  Al2Si2O5(OH)4
	Microcline       -9.93     -9.06    0.88  KAlSi3O8
	Muscovite        -5.93      7.04   12.97  KAl3Si3O10(OH)2
	O2(g)           -10.86    -13.76   -2.89  O2
	Quartz           -2.06     -6.02   -3.96  SiO2
	SiO2(a)          -3.31     -6.02   -2.71  SiO2


Reaction step 5.

Using solution 1.	PURE WATER
Using pure phase assemblage 1.	
Using reaction 1.	

Reaction 1.	

	  6.400e-07 moles of the following reaction have been added:

	                 Relative
	Reactant            moles

	Microcline           1.00000

	                 Relative
	Element             moles
	Al                   1.00000
	K                    1.00000
	O                    8.00000
	Si                   3.00000

-------------------------------Phase assemblage--------------------------------

                                                      Moles in assemblage
Phase               SI  log IAP  log K(T, P)   Initial       Final       Delta

Gibbsite          0.00     8.05      8.05    0.000e+00   5.144e-07   5.144e-07
Kaolinite        -1.05     4.66      5.71    0.000e+00           0   0.000e+00
Microcline       -8.47    -7.60      0.88    0.000e+00           0   0.000e+00
Muscovite        -4.47     8.50     12.97    0.000e+00           0   0.000e+00

-----------------------------Solution composition------------------------------

	Elements           Molality       Moles

	Al                1.256e-07   1.256e-07
	K                 6.400e-07   6.400e-07
	Si                1.920e-06   1.920e-06

----------------------------Description of solution----------------------------

                                       pH  =   7.710      Charge balance
                                       pe  =  10.155      Adjusted to redox equilibrium
       Specific Conductance (uS/cm, 25 oC) = 0
                          Density (g/cm3)  =   0.99700
                        Activity of water  =   1.000
                           Ionic strength  =   6.597e-07
                       Mass of water (kg)  =   1.000e+00
                 Total alkalinity (eq/kg)  =   1.017e-06
                    Total carbon (mol/kg)  =   0.000e+00
                       Total CO2 (mol/kg)  =   0.000e+00
                      Temperature (deg C)  =  25.00
                  Electrical balance (eq)  =  -6.058e-17
 Percent error, 100*(Cat-|An|)/(Cat+|An|)  =  -0.00
                               Iterations  =  10
                                  Total H  = 1.110124e+02
                                  Total O  = 5.550622e+01

----------------------------Distribution of species----------------------------

                                            Log       Log         Log     mole V
   Species          Molality    Activity  Molality  Activity     Gamma   cm3/mol

   OH-             5.211e-07   5.206e-07    -6.283    -6.284    -0.000     -3.76
   H+              1.953e-08   1.951e-08    -7.709    -7.710    -0.000      0.00
   H2O             5.551e+01   1.000e+00     1.744    -0.000     0.000     18.07
Al            1.256e-07
   Al(OH)4-        1.242e-07   1.241e-07    -6.906    -6.906    -0.000     46.00
   Al(OH)3         1.284e-09   1.284e-09    -8.891    -8.891     0.000     (0)  
   Al(OH)2+        1.702e-10   1.700e-10    -9.769    -9.770    -0.000     (0)  
   AlOH+2          4.247e-13   4.231e-13   -12.372   -12.374    -0.002     (0)  
   Al+3            8.380e-16   8.309e-16   -15.077   -15.080    -0.004    -44.88
H(0)          2.642e-39
   H2              1.321e-39   1.321e-39   -38.879   -38.879     0.000     20.00
K             6.400e-07
   K+              6.400e-07   6.394e-07    -6.194    -6.194    -0.000      8.78
   KOH             1.137e-13   1.137e-13   -12.944   -12.944     0.000     (0)  
O(0)          4.778e-15
   O2              2.389e-15   2.389e-15   -14.622   -14.622     0.000     35.00
Si            1.920e-06
   H4SiO4          1.906e-06   1.906e-06    -5.720    -5.720     0.000     51.00
   H3SiO4-         1.442e-08   1.440e-08    -7.841    -7.842    -0.000     (0)  
   H2SiO4-2        5.042e-14   5.023e-14   -13.297   -13.299    -0.002     (0)  

------------------------------Saturation indices-------------------------------

	Phase               SI   log IAP   log K(298 K,   1 atm)

	Al(OH)3(a)       -2.75      8.05   10.80  Al(OH)3
	Chalcedony       -2.17     -5.72   -3.55  SiO2
	Gibbsite          0.00      8.05    8.05  Al(OH)3
	H2(g)           -35.78    -38.88   -3.10  H2
	H2O(g)           -1.50     -0.00    1.50  H2O
	K-feldspar       -9.69    -30.26  -20.57  KAlSi3O8
	K-mica           -4.20      8.50   12.70  KAl3Si3O10(OH)2
	Kaolinite        -1.05      4.66    5.71  Al2Si2O5(OH)4
	Microcline       -8.47     -7.60    0.88  KAlSi3O8
	Muscovite        -4.47      8.50   12.97  KAl3Si3O10(OH)2
	O2(g)           -11.73    -14.62   -2.89  O2
	Quartz           -1.76     -5.72   -3.96  SiO2
	SiO2(a)          -3.01     -5.72   -2.71  SiO2


Reaction step 6.

Using solution 1.	PURE WATER
Using pure phase assemblage 1.	
Using reaction 1.	

Reaction 1.	

	  1.000e-06 moles of the following reaction have been added:

	                 Relative
	Reactant            moles

	Microcline           1.00000

	                 Relative
	Element             moles
	Al                   1.00000
	K                    1.00000
	O                    8.00000
	Si                   3.00000

-------------------------------Phase assemblage--------------------------------

                                                      Moles in assemblage
Phase               SI  log IAP  log K(T, P)   Initial       Final       Delta

Gibbsite          0.00     8.05      8.05    0.000e+00   8.102e-07   8.102e-07
Kaolinite        -0.67     5.04      5.71    0.000e+00           0   0.000e+00
Microcline       -7.52    -6.64      0.88    0.000e+00           0   0.000e+00
Muscovite        -3.52     9.45     12.97    0.000e+00           0   0.000e+00

-----------------------------Solution composition------------------------------

	Elements           Molality       Moles

	Al                1.898e-07   1.898e-07
	K                 1.000e-06   1.000e-06
	Si                3.000e-06   3.000e-06

----------------------------Description of solution----------------------------

                                       pH  =   7.891      Charge balance
                                       pe  =  10.152      Adjusted to redox equilibrium
       Specific Conductance (uS/cm, 25 oC) = 0
                          Density (g/cm3)  =   0.99700
                        Activity of water  =   1.000
                           Ionic strength  =   1.013e-06
                       Mass of water (kg)  =   1.000e+00
                 Total alkalinity (eq/kg)  =   1.569e-06
                    Total carbon (mol/kg)  =   0.000e+00
                       Total CO2 (mol/kg)  =   0.000e+00
                      Temperature (deg C)  =  25.00
                  Electrical balance (eq)  =  -4.842e-15
 Percent error, 100*(Cat-|An|)/(Cat+|An|)  =  -0.00
                               Iterations  =  10
                                  Total H  = 1.110124e+02
                                  Total O  = 5.550622e+01

----------------------------Distribution of species----------------------------

                                            Log       Log         Log     mole V
   Species          Molality    Activity  Molality  Activity     Gamma   cm3/mol

   OH-             7.905e-07   7.896e-07    -6.102    -6.103    -0.001     -3.76
   H+              1.288e-08   1.286e-08    -7.890    -7.891    -0.001      0.00
   H2O             5.551e+01   1.000e+00     1.744    -0.000     0.000     18.07
Al            1.898e-07
   Al(OH)4-        1.884e-07   1.882e-07    -6.725    -6.725    -0.001     46.00
   Al(OH)3         1.284e-09   1.284e-09    -8.891    -8.891     0.000     (0)  
   Al(OH)2+        1.122e-10   1.121e-10    -9.950    -9.950    -0.001     (0)  
   AlOH+2          1.848e-13   1.839e-13   -12.733   -12.735    -0.002     (0)  
   Al+3            2.407e-16   2.381e-16   -15.619   -15.623    -0.005    -44.88
H(0)          1.161e-39
   H2              5.807e-40   5.807e-40   -39.236   -39.236     0.000     20.00
K             1.000e-06
   K+              1.000e-06   9.988e-07    -6.000    -6.001    -0.001      8.78
   KOH             2.693e-13   2.693e-13   -12.570   -12.570     0.000     (0)  
O(0)          2.472e-14
   O2              1.236e-14   1.236e-14   -13.908   -13.908     0.000     35.00
Si            3.000e-06
   H4SiO4          2.966e-06   2.966e-06    -5.528    -5.528     0.000     51.00
   H3SiO4-         3.405e-08   3.400e-08    -7.468    -7.468    -0.001     (0)  
   H2SiO4-2        1.807e-13   1.799e-13   -12.743   -12.745    -0.002     (0)  

------------------------------Saturation indices-------------------------------

	Phase               SI   log IAP   log K(298 K,   1 atm)

	Al(OH)3(a)       -2.75      8.05   10.80  Al(OH)3
	Chalcedony       -1.98     -5.53   -3.55  SiO2
	Gibbsite          0.00      8.05    8.05  Al(OH)3
	H2(g)           -36.13    -39.24   -3.10  H2
	H2O(g)           -1.50     -0.00    1.50  H2O
	K-feldspar       -8.74    -29.31  -20.57  KAlSi3O8
	K-mica           -3.25      9.45   12.70  KAl3Si3O10(OH)2
	Kaolinite        -0.67      5.04    5.71  Al2Si2O5(OH)4
	Microcline       -7.52     -6.64    0.88  KAlSi3O8
	Muscovite        -3.52      9.45   12.97  KAl3Si3O10(OH)2
	O2(g)           -11.02    -13.91   -2.89  O2
	Quartz           -1.57     -5.53   -3.96  SiO2
	SiO2(a)          -2.82     -5.53   -2.71  SiO2


Reaction step 7.

Using solution 1.	PURE WATER
Using pure phase assemblage 1.	
Using reaction 1.	

Reaction 1.	

	  2.000e-06 moles of the following reaction have been added:

	                 Relative
	Reactant            moles

	Microcline           1.00000

	                 Relative
	Element             moles
	Al                   1.00000
	K                    1.00000
	O                    8.00000
	Si                   3.00000

-------------------------------Phase assemblage--------------------------------

                                                      Moles in assemblage
Phase               SI  log IAP  log K(T, P)   Initial       Final       Delta

Gibbsite          0.00     8.05      8.05    0.000e+00   1.637e-06   1.637e-06
Kaolinite        -0.07     5.64      5.71    0.000e+00           0   0.000e+00
Microcline       -6.05    -5.17      0.88    0.000e+00           0   0.000e+00
Muscovite        -2.04    10.93     12.97    0.000e+00           0   0.000e+00

-----------------------------Solution composition------------------------------

	Elements           Molality       Moles

	Al                3.627e-07   3.627e-07
	K                 2.000e-06   2.000e-06
	Si                6.000e-06   6.000e-06

----------------------------Description of solution----------------------------

                                       pH  =   8.173      Charge balance
                                       pe  =   9.767      Adjusted to redox equilibrium
       Specific Conductance (uS/cm, 25 oC) = 0
                          Density (g/cm3)  =   0.99700
                        Activity of water  =   1.000
                           Ionic strength  =   2.007e-06
                       Mass of water (kg)  =   1.000e+00
                 Total alkalinity (eq/kg)  =   3.088e-06
                    Total carbon (mol/kg)  =   0.000e+00
                       Total CO2 (mol/kg)  =   0.000e+00
                      Temperature (deg C)  =  25.00
                  Electrical balance (eq)  =  -1.779e-16
 Percent error, 100*(Cat-|An|)/(Cat+|An|)  =  -0.00
                               Iterations  =  11
                                  Total H  = 1.110124e+02
                                  Total O  = 5.550623e+01

----------------------------Distribution of species----------------------------

                                            Log       Log         Log     mole V
   Species          Molality    Activity  Molality  Activity     Gamma   cm3/mol

   OH-             1.516e-06   1.514e-06    -5.819    -5.820    -0.001     -3.76
   H+              6.720e-09   6.709e-09    -8.173    -8.173    -0.001      0.00
   H2O             5.551e+01   1.000e+00     1.744    -0.000     0.000     18.07
Al            3.627e-07
   Al(OH)4-        3.613e-07   3.607e-07    -6.442    -6.443    -0.001     46.00
   Al(OH)3         1.284e-09   1.284e-09    -8.891    -8.891     0.000     (0)  
   Al(OH)2+        5.857e-11   5.847e-11   -10.232   -10.233    -0.001     (0)  
   AlOH+2          5.038e-14   5.005e-14   -13.298   -13.301    -0.003     (0)  
   Al+3            3.431e-17   3.380e-17   -16.465   -16.471    -0.006    -44.88
H(0)          1.860e-39
   H2              9.300e-40   9.300e-40   -39.032   -39.032     0.000     20.00
K             2.000e-06
   K+              2.000e-06   1.997e-06    -5.699    -5.700    -0.001      8.78
   KOH             1.032e-12   1.032e-12   -11.986   -11.986     0.000     (0)  
O(0)          9.641e-15
   O2              4.820e-15   4.820e-15   -14.317   -14.317     0.000     35.00
Si            6.000e-06
   H4SiO4          5.871e-06   5.871e-06    -5.231    -5.231     0.000     51.00
   H3SiO4-         1.292e-07   1.290e-07    -6.889    -6.889    -0.001     (0)  
   H2SiO4-2        1.317e-12   1.308e-12   -11.880   -11.883    -0.003     (0)  

------------------------------Saturation indices-------------------------------

	Phase               SI   log IAP   log K(298 K,   1 atm)

	Al(OH)3(a)       -2.75      8.05   10.80  Al(OH)3
	Chalcedony       -1.68     -5.23   -3.55  SiO2
	Gibbsite          0.00      8.05    8.05  Al(OH)3
	H2(g)           -35.93    -39.03   -3.10  H2
	H2O(g)           -1.50     -0.00    1.50  H2O
	K-feldspar       -7.26    -27.84  -20.57  KAlSi3O8
	K-mica           -1.78     10.93   12.70  KAl3Si3O10(OH)2
	Kaolinite        -0.07      5.64    5.71  Al2Si2O5(OH)4
	Microcline       -6.05     -5.17    0.88  KAlSi3O8
	Muscovite        -2.04     10.93   12.97  KAl3Si3O10(OH)2
	O2(g)           -11.42    -14.32   -2.89  O2
	Quartz           -1.27     -5.23   -3.96  SiO2
	SiO2(a)          -2.52     -5.23   -2.71  SiO2


Reaction step 8.

Using solution 1.	PURE WATER
Using pure phase assemblage 1.	
Using reaction 1.	

Reaction 1.	

	  4.000e-06 moles of the following reaction have been added:

	                 Relative
	Reactant            moles

	Microcline           1.00000

	                 Relative
	Element             moles
	Al                   1.00000
	K                    1.00000
	O                    8.00000
	Si                   3.00000

-------------------------------Phase assemblage--------------------------------

                                                      Moles in assemblage
Phase               SI  log IAP  log K(T, P)   Initial       Final       Delta

Gibbsite         -0.11     7.94      8.05    0.000e+00           0   0.000e+00
Kaolinite         0.00     5.71      5.71    0.000e+00   1.715e-06   1.715e-06
Microcline       -5.11    -4.24      0.88    0.000e+00           0   0.000e+00
Muscovite        -1.33    11.64     12.97    0.000e+00           0   0.000e+00

-----------------------------Solution composition------------------------------

	Elements           Molality       Moles

	Al                5.700e-07   5.700e-07
	K                 4.000e-06   4.000e-06
	Si                8.570e-06   8.570e-06

----------------------------Description of solution----------------------------

                                       pH  =   8.479      Charge balance
                                       pe  =   9.378      Adjusted to redox equilibrium
       Specific Conductance (uS/cm, 25 oC) = 0
                          Density (g/cm3)  =   0.99700
                        Activity of water  =   1.000
                           Ionic strength  =   4.003e-06
                       Mass of water (kg)  =   1.000e+00
                 Total alkalinity (eq/kg)  =   5.710e-06
                    Total carbon (mol/kg)  =   0.000e+00
                       Total CO2 (mol/kg)  =   0.000e+00
                      Temperature (deg C)  =  25.00
                  Electrical balance (eq)  =  -7.674e-16
 Percent error, 100*(Cat-|An|)/(Cat+|An|)  =  -0.00
                               Iterations  =  11
                                  Total H  = 1.110124e+02
                                  Total O  = 5.550623e+01

----------------------------Distribution of species----------------------------

                                            Log       Log         Log     mole V
   Species          Molality    Activity  Molality  Activity     Gamma   cm3/mol

   OH-             3.069e-06   3.062e-06    -5.513    -5.514    -0.001     -3.76
   H+              3.325e-09   3.317e-09    -8.478    -8.479    -0.001      0.00
   H2O             5.551e+01   1.000e+00     1.744    -0.000     0.000     18.07
Al            5.700e-07
   Al(OH)4-        5.690e-07   5.676e-07    -6.245    -6.246    -0.001     46.00
   Al(OH)3         9.990e-10   9.990e-10    -9.000    -9.000     0.000     (0)  
   Al(OH)2+        2.254e-11   2.249e-11   -10.647   -10.648    -0.001     (0)  
   AlOH+2          9.607e-15   9.517e-15   -14.017   -14.022    -0.004     (0)  
   Al+3            3.245e-18   3.178e-18   -17.489   -17.498    -0.009    -44.87
H(0)          2.736e-39
   H2              1.368e-39   1.368e-39   -38.864   -38.864     0.000     20.00
K             4.000e-06
   K+              4.000e-06   3.991e-06    -5.398    -5.399    -0.001      8.78
   KOH             4.172e-12   4.172e-12   -11.380   -11.380     0.000     (0)  
O(0)          4.455e-15
   O2              2.228e-15   2.228e-15   -14.652   -14.652     0.000     35.00
Si            8.570e-06
   H4SiO4          8.204e-06   8.204e-06    -5.086    -5.086     0.000     51.00
   H3SiO4-         3.656e-07   3.647e-07    -6.437    -6.438    -0.001     (0)  
   H2SiO4-2        7.550e-12   7.480e-12   -11.122   -11.126    -0.004     (0)  

------------------------------Saturation indices-------------------------------

	Phase               SI   log IAP   log K(298 K,   1 atm)

	Al(OH)3(a)       -2.86      7.94   10.80  Al(OH)3
	Chalcedony       -1.53     -5.09   -3.55  SiO2
	Gibbsite         -0.11      7.94    8.05  Al(OH)3
	H2(g)           -35.76    -38.86   -3.10  H2
	H2O(g)           -1.50     -0.00    1.50  H2O
	K-feldspar       -6.33    -26.90  -20.57  KAlSi3O8
	K-mica           -1.06     11.64   12.70  KAl3Si3O10(OH)2
	Kaolinite         0.00      5.71    5.71  Al2Si2O5(OH)4
	Microcline       -5.11     -4.24    0.88  KAlSi3O8
	Muscovite        -1.33     11.64   12.97  KAl3Si3O10(OH)2
	O2(g)           -11.76    -14.65   -2.89  O2
	Quartz           -1.13     -5.09   -3.96  SiO2
	SiO2(a)          -2.37     -5.09   -2.71  SiO2


Reaction step 9.

Using solution 1.	PURE WATER
Using pure phase assemblage 1.	
Using reaction 1.	

Reaction 1.	

	  8.000e-06 moles of the following reaction have been added:

	                 Relative
	Reactant            moles

	Microcline           1.00000

	                 Relative
	Element             moles
	Al                   1.00000
	K                    1.00000
	O                    8.00000
	Si                   3.00000

-------------------------------Phase assemblage--------------------------------

                                                      Moles in assemblage
Phase               SI  log IAP  log K(T, P)   Initial       Final       Delta

Gibbsite         -0.38     7.67      8.05    0.000e+00           0   0.000e+00
Kaolinite        -0.00     5.71      5.71    0.000e+00   3.698e-06   3.698e-06
Microcline       -3.98    -3.10      0.88    0.000e+00           0   0.000e+00
Muscovite        -0.73    12.24     12.97    0.000e+00           0   0.000e+00

-----------------------------Solution composition------------------------------

	Elements           Molality       Moles

	Al                6.041e-07   6.041e-07
	K                 8.000e-06   8.000e-06
	Si                1.660e-05   1.660e-05

----------------------------Description of solution----------------------------

                                       pH  =   8.774      Charge balance
                                       pe  =   9.158      Adjusted to redox equilibrium
       Specific Conductance (uS/cm, 25 oC) = 1
                          Density (g/cm3)  =   0.99700
                        Activity of water  =   1.000
                           Ionic strength  =   8.002e-06
                       Mass of water (kg)  =   1.000e+00
                 Total alkalinity (eq/kg)  =   9.812e-06
                    Total carbon (mol/kg)  =   0.000e+00
                       Total CO2 (mol/kg)  =   0.000e+00
                      Temperature (deg C)  =  25.00
                  Electrical balance (eq)  =  -3.540e-17
 Percent error, 100*(Cat-|An|)/(Cat+|An|)  =  -0.00
                               Iterations  =  13
                                  Total H  = 1.110124e+02
                                  Total O  = 5.550625e+01

----------------------------Distribution of species----------------------------

                                            Log       Log         Log     mole V
   Species          Molality    Activity  Molality  Activity     Gamma   cm3/mol

   OH-             6.056e-06   6.036e-06    -5.218    -5.219    -0.001     -3.76
   H+              1.688e-09   1.682e-09    -8.773    -8.774    -0.001      0.00
   H2O             5.551e+01   1.000e+00     1.744    -0.000     0.000     18.07
Al            6.041e-07
   Al(OH)4-        6.036e-07   6.016e-07    -6.219    -6.221    -0.001     46.00
   Al(OH)3         5.370e-10   5.370e-10    -9.270    -9.270     0.000     (0)  
   Al(OH)2+        6.152e-12   6.132e-12   -11.211   -11.212    -0.001     (0)  
   AlOH+2          1.334e-15   1.316e-15   -14.875   -14.881    -0.006     (0)  
   Al+3            2.296e-19   2.229e-19   -18.639   -18.652    -0.013    -44.86
H(0)          1.933e-39
   H2              9.663e-40   9.664e-40   -39.015   -39.015     0.000     20.00
K             8.000e-06
   K+              8.000e-06   7.974e-06    -5.097    -5.098    -0.001      8.78
   KOH             1.643e-11   1.643e-11   -10.784   -10.784     0.000     (0)  
O(0)          8.928e-15
   O2              4.464e-15   4.464e-15   -14.350   -14.350     0.000     35.00
Si            1.660e-05
   H4SiO4          1.526e-05   1.526e-05    -4.816    -4.816     0.000     51.00
   H3SiO4-         1.342e-06   1.338e-06    -5.872    -5.874    -0.001     (0)  
   H2SiO4-2        5.480e-11   5.408e-11   -10.261   -10.267    -0.006     (0)  

------------------------------Saturation indices-------------------------------

	Phase               SI   log IAP   log K(298 K,   1 atm)

	Al(OH)3(a)       -3.13      7.67   10.80  Al(OH)3
	Chalcedony       -1.27     -4.82   -3.55  SiO2
	Gibbsite         -0.38      7.67    8.05  Al(OH)3
	H2(g)           -35.91    -39.01   -3.10  H2
	H2O(g)           -1.50     -0.00    1.50  H2O
	K-feldspar       -5.20    -25.77  -20.57  KAlSi3O8
	K-mica           -0.47     12.24   12.70  KAl3Si3O10(OH)2
	Kaolinite        -0.00      5.71    5.71  Al2Si2O5(OH)4
	Microcline       -3.98     -3.10    0.88  KAlSi3O8
	Muscovite        -0.73     12.24   12.97  KAl3Si3O10(OH)2
	O2(g)           -11.46    -14.35   -2.89  O2
	Quartz           -0.86     -4.82   -3.96  SiO2
	SiO2(a)          -2.10     -4.82   -2.71  SiO2


Reaction step 10.

Using solution 1.	PURE WATER
Using pure phase assemblage 1.	
Using reaction 1.	

Reaction 1.	

	  1.600e-05 moles of the following reaction have been added:

	                 Relative
	Reactant            moles

	Microcline           1.00000

	                 Relative
	Element             moles
	Al                   1.00000
	K                    1.00000
	O                    8.00000
	Si                   3.00000

-------------------------------Phase assemblage--------------------------------

                                                      Moles in assemblage
Phase               SI  log IAP  log K(T, P)   Initial       Final       Delta

Gibbsite         -0.64     7.40      8.05    0.000e+00           0   0.000e+00
Kaolinite        -0.00     5.71      5.71    0.000e+00   7.704e-06   7.704e-06
Microcline       -2.89    -2.02      0.88    0.000e+00           0   0.000e+00
Muscovite        -0.18    12.79     12.97    0.000e+00           0   0.000e+00

-----------------------------Solution composition------------------------------

	Elements           Molality       Moles

	Al                5.920e-07   5.920e-07
	K                 1.600e-05   1.600e-05
	Si                3.259e-05   3.259e-05

----------------------------Description of solution----------------------------

                                       pH  =   9.030      Charge balance
                                       pe  =   8.805      Adjusted to redox equilibrium
       Specific Conductance (uS/cm, 25 oC) = 3
                          Density (g/cm3)  =   0.99700
                        Activity of water  =   1.000
                           Ionic strength  =   1.600e-05
                       Mass of water (kg)  =   1.000e+00
                 Total alkalinity (eq/kg)  =   1.778e-05
                    Total carbon (mol/kg)  =   0.000e+00
                       Total CO2 (mol/kg)  =   0.000e+00
                      Temperature (deg C)  =  25.00
                  Electrical balance (eq)  =  -9.690e-16
 Percent error, 100*(Cat-|An|)/(Cat+|An|)  =  -0.00
                               Iterations  =  13
                                  Total H  = 1.110124e+02
                                  Total O  = 5.550628e+01

----------------------------Distribution of species----------------------------

                                            Log       Log         Log     mole V
   Species          Molality    Activity  Molality  Activity     Gamma   cm3/mol

   OH-             1.094e-05   1.089e-05    -4.961    -4.963    -0.002     -3.76
   H+              9.369e-10   9.325e-10    -9.028    -9.030    -0.002      0.00
   H2O             5.551e+01   1.000e+00     1.744    -0.000     0.000     18.07
Al            5.920e-07
   Al(OH)4-        5.918e-07   5.890e-07    -6.228    -6.230    -0.002     46.00
   Al(OH)3         2.914e-10   2.914e-10    -9.535    -9.535     0.000     (0)  
   Al(OH)2+        1.853e-12   1.844e-12   -11.732   -11.734    -0.002     (0)  
   AlOH+2          2.236e-16   2.194e-16   -15.651   -15.659    -0.008     (0)  
   Al+3            2.148e-20   2.060e-20   -19.668   -19.686    -0.018    -44.85
H(0)          3.017e-39
   H2              1.509e-39   1.509e-39   -38.821   -38.821     0.000     20.00
K             1.600e-05
   K+              1.600e-05   1.593e-05    -4.796    -4.798    -0.002      8.78
   KOH             5.921e-11   5.921e-11   -10.228   -10.228     0.000     (0)  
O(0)          3.663e-15
   O2              1.832e-15   1.832e-15   -14.737   -14.737     0.000     35.00
Si            3.259e-05
   H4SiO4          2.812e-05   2.812e-05    -4.551    -4.551     0.000     51.00
   H3SiO4-         4.468e-06   4.447e-06    -5.350    -5.352    -0.002     (0)  
   H2SiO4-2        3.305e-10   3.244e-10    -9.481    -9.489    -0.008     (0)  

------------------------------Saturation indices-------------------------------

	Phase               SI   log IAP   log K(298 K,   1 atm)

	Al(OH)3(a)       -3.40      7.40   10.80  Al(OH)3
	Chalcedony       -1.00     -4.55   -3.55  SiO2
	Gibbsite         -0.64      7.40    8.05  Al(OH)3
[...]
O(0)          7.344e-15
   O2              3.672e-15   3.672e-15   -14.435   -14.435     0.000     35.00
Si            6.433e-05
   H4SiO4          5.478e-05   5.479e-05    -4.261    -4.261     0.000     51.00
   H3SiO4-         9.548e-06   9.496e-06    -5.020    -5.022    -0.002     (0)  
   H2SiO4-2        7.761e-10   7.593e-10    -9.110    -9.120    -0.009     (0)  

------------------------------Saturation indices-------------------------------

	Phase               SI   log IAP   log K(298 K,   1 atm)

	Al(OH)3(a)       -3.68      7.12   10.80  Al(OH)3
	Chalcedony       -0.71     -4.26   -3.55  SiO2
	Gibbsite         -0.93      7.12    8.05  Al(OH)3
	H2(g)           -35.87    -38.97   -3.10  H2
	H2O(g)           -1.50     -0.00    1.50  H2O
	K-feldspar       -3.35    -23.93  -20.57  KAlSi3O8
	K-mica            0.27     12.97   12.70  KAl3Si3O10(OH)2
	Kaolinite        -0.00      5.71    5.71  Al2Si2O5(OH)4
	Microcline       -2.14     -1.26    0.88  KAlSi3O8
	Muscovite        -0.00     12.97   12.97  KAl3Si3O10(OH)2
	O2(g)           -11.54    -14.44   -2.89  O2
	Quartz           -0.30     -4.26   -3.96  SiO2
	SiO2(a)          -1.55     -4.26   -2.71  SiO2


Reaction step 12.

Using solution 1.	PURE WATER
Using pure phase assemblage 1.	
Using reaction 1.	

Reaction 1.	

	  4.000e-05 moles of the following reaction have been added:

	                 Relative
	Reactant            moles

	Microcline           1.00000

	                 Relative
	Element             moles
	Al                   1.00000
	K                    1.00000
	O                    8.00000
	Si                   3.00000

-------------------------------Phase assemblage--------------------------------

                                                      Moles in assemblage
Phase               SI  log IAP  log K(T, P)   Initial       Final       Delta

Gibbsite         -1.07     6.98      8.05    0.000e+00           0   0.000e+00
Kaolinite        -0.09     5.62      5.71    0.000e+00           0   0.000e+00
Microcline       -1.87    -0.99      0.88    0.000e+00           0   0.000e+00
Muscovite         0.00    12.97     12.97    0.000e+00   1.324e-05   1.324e-05

-----------------------------Solution composition------------------------------

	Elements           Molality       Moles

	Al                2.737e-07   2.737e-07
	K                 2.676e-05   2.676e-05
	Si                8.027e-05   8.027e-05

----------------------------Description of solution----------------------------

                                       pH  =   9.118      Charge balance
                                       pe  =   8.818      Adjusted to redox equilibrium
       Specific Conductance (uS/cm, 25 oC) = 4
                          Density (g/cm3)  =   0.99700
                        Activity of water  =   1.000
                           Ionic strength  =   2.676e-05
                       Mass of water (kg)  =   1.000e+00
                 Total alkalinity (eq/kg)  =   2.758e-05
                    Total carbon (mol/kg)  =   0.000e+00
                       Total CO2 (mol/kg)  =   0.000e+00
                      Temperature (deg C)  =  25.00
                  Electrical balance (eq)  =  -3.808e-17
 Percent error, 100*(Cat-|An|)/(Cat+|An|)  =  -0.00
                               Iterations  =  14
                                  Total H  = 1.110124e+02
                                  Total O  = 5.550638e+01

----------------------------Distribution of species----------------------------

                                            Log       Log         Log     mole V
   Species          Molality    Activity  Molality  Activity     Gamma   cm3/mol

   OH-             1.340e-05   1.332e-05    -4.873    -4.875    -0.003     -3.76
   H+              7.667e-10   7.622e-10    -9.115    -9.118    -0.003      0.00
   H2O             5.551e+01   1.000e+00     1.744    -0.000     0.000     18.07
Al            2.737e-07
   Al(OH)4-        2.736e-07   2.720e-07    -6.563    -6.565    -0.003     46.00
   Al(OH)3         1.100e-10   1.100e-10    -9.959    -9.959     0.000     (0)  
   Al(OH)2+        5.724e-13   5.689e-13   -12.242   -12.245    -0.003     (0)  
   AlOH+2          5.668e-17   5.533e-17   -16.247   -16.257    -0.010     (0)  
   Al+3            4.480e-21   4.245e-21   -20.349   -20.372    -0.023    -44.84
H(0)          1.906e-39
   H2              9.528e-40   9.528e-40   -39.021   -39.021     0.000     20.00
K             2.676e-05
   K+              2.676e-05   2.660e-05    -4.573    -4.575    -0.003      8.78
   KOH             1.210e-10   1.210e-10    -9.917    -9.917     0.000     (0)  
O(0)          9.184e-15
   O2              4.592e-15   4.592e-15   -14.338   -14.338     0.000     35.00
Si            8.027e-05
   H4SiO4          6.719e-05   6.719e-05    -4.173    -4.173     0.000     51.00
   H3SiO4-         1.308e-05   1.300e-05    -4.883    -4.886    -0.003     (0)  
   H2SiO4-2        1.189e-09   1.160e-09    -8.925    -8.935    -0.010     (0)  

------------------------------Saturation indices-------------------------------

	Phase               SI   log IAP   log K(298 K,   1 atm)

	Al(OH)3(a)       -3.82      6.98   10.80  Al(OH)3
	Chalcedony       -0.62     -4.17   -3.55  SiO2
	Gibbsite         -1.07      6.98    8.05  Al(OH)3
	H2(g)           -35.92    -39.02   -3.10  H2
	H2O(g)           -1.50     -0.00    1.50  H2O
	K-feldspar       -3.09    -23.66  -20.57  KAlSi3O8
	K-mica            0.27     12.97   12.70  KAl3Si3O10(OH)2
	Kaolinite        -0.09      5.62    5.71  Al2Si2O5(OH)4
	Microcline       -1.87     -0.99    0.88  KAlSi3O8
	Muscovite         0.00     12.97   12.97  KAl3Si3O10(OH)2
	O2(g)           -11.45    -14.34   -2.89  O2
	Quartz           -0.22     -4.17   -3.96  SiO2
	SiO2(a)          -1.46     -4.17   -2.71  SiO2


Reaction step 13.

Using solution 1.	PURE WATER
Using pure phase assemblage 1.	
Using reaction 1.	

Reaction 1.	

	  5.000e-05 moles of the following reaction have been added:

	                 Relative
	Reactant            moles

	Microcline           1.00000

	                 Relative
	Element             moles
	Al                   1.00000
	K                    1.00000
	O                    8.00000
	Si                   3.00000

-------------------------------Phase assemblage--------------------------------

                                                      Moles in assemblage
Phase               SI  log IAP  log K(T, P)   Initial       Final       Delta

Gibbsite         -1.20     6.84      8.05    0.000e+00           0   0.000e+00
Kaolinite        -0.19     5.52      5.71    0.000e+00           0   0.000e+00
Microcline       -1.59    -0.72      0.88    0.000e+00           0   0.000e+00
Muscovite        -0.00    12.97     12.97    0.000e+00   1.659e-05   1.659e-05

-----------------------------Solution composition------------------------------

	Elements           Molality       Moles

	Al                2.254e-07   2.254e-07
	K                 3.341e-05   3.341e-05
	Si                1.002e-04   1.002e-04

----------------------------Description of solution----------------------------

                                       pH  =   9.170      Charge balance
                                       pe  =   8.722      Adjusted to redox equilibrium
       Specific Conductance (uS/cm, 25 oC) = 5
                          Density (g/cm3)  =   0.99701
                        Activity of water  =   1.000
                           Ionic strength  =   3.341e-05
                       Mass of water (kg)  =   1.000e+00
                 Total alkalinity (eq/kg)  =   3.408e-05
                    Total carbon (mol/kg)  =   0.000e+00
                       Total CO2 (mol/kg)  =   0.000e+00
                      Temperature (deg C)  =  25.00
                  Electrical balance (eq)  =  -3.664e-17
 Percent error, 100*(Cat-|An|)/(Cat+|An|)  =  -0.00
                               Iterations  =  14
                                  Total H  = 1.110124e+02
                                  Total O  = 5.550642e+01

----------------------------Distribution of species----------------------------

                                            Log       Log         Log     mole V
   Species          Molality    Activity  Molality  Activity     Gamma   cm3/mol

   OH-             1.513e-05   1.503e-05    -4.820    -4.823    -0.003     -3.76
   H+              6.803e-10   6.758e-10    -9.167    -9.170    -0.003      0.00
   H2O             5.551e+01   1.000e+00     1.744    -0.000     0.000     18.07
Al            2.254e-07
   Al(OH)4-        2.254e-07   2.238e-07    -6.647    -6.650    -0.003     46.01
   Al(OH)3         8.026e-11   8.026e-11   -10.096   -10.096     0.000     (0)  
   Al(OH)2+        3.706e-13   3.681e-13   -12.431   -12.434    -0.003     (0)  
   AlOH+2          3.260e-17   3.174e-17   -16.487   -16.498    -0.012     (0)  
   Al+3            2.293e-21   2.159e-21   -20.640   -20.666    -0.026    -44.84
H(0)          2.328e-39
   H2              1.164e-39   1.164e-39   -38.934   -38.934     0.000     20.00
K             3.341e-05
   K+              3.341e-05   3.318e-05    -4.476    -4.479    -0.003      8.78
   KOH             1.703e-10   1.703e-10    -9.769    -9.769     0.000     (0)  
O(0)          6.155e-15
   O2              3.078e-15   3.078e-15   -14.512   -14.512     0.000     35.00
Si            1.002e-04
   H4SiO4          8.217e-05   8.217e-05    -4.085    -4.085     0.000     51.00
   H3SiO4-         1.805e-05   1.793e-05    -4.743    -4.746    -0.003     (0)  
   H2SiO4-2        1.854e-09   1.805e-09    -8.732    -8.744    -0.012     (0)  

------------------------------Saturation indices-------------------------------

	Phase               SI   log IAP   log K(298 K,   1 atm)

	Al(OH)3(a)       -3.96      6.84   10.80  Al(OH)3
	Chalcedony       -0.53     -4.09   -3.55  SiO2
	Gibbsite         -1.20      6.84    8.05  Al(OH)3
	H2(g)           -35.83    -38.93   -3.10  H2
	H2O(g)           -1.50     -0.00    1.50  H2O
	K-feldspar       -2.81    -23.38  -20.57  KAlSi3O8
	K-mica            0.27     12.97   12.70  KAl3Si3O10(OH)2
	Kaolinite        -0.19      5.52    5.71  Al2Si2O5(OH)4
	Microcline       -1.59     -0.72    0.88  KAlSi3O8
	Muscovite        -0.00     12.97   12.97  KAl3Si3O10(OH)2
	O2(g)           -11.62    -14.51   -2.89  O2
	Quartz           -0.13     -4.09   -3.96  SiO2
	SiO2(a)          -1.37     -4.09   -2.71  SiO2


------------------
End of simulation.
------------------

------------------------------------
Reading input data for simulation 9.
------------------------------------

	USE solution 1
	EQUILIBRIUM_PHASES 1
	        Muscovite               0.0     10.0
	        Kaolinite       0.0     10.0
	        Gibbsite        0.0     10.0
	END
-----------------------------------------
Beginning of batch-reaction calculations.
-----------------------------------------

Reaction step 1.

Using solution 1.	PURE WATER
Using pure phase assemblage 1.	

-------------------------------Phase assemblage--------------------------------

                                                      Moles in assemblage
Phase               SI  log IAP  log K(T, P)   Initial       Final       Delta

Gibbsite         -0.00     8.05      8.05    1.000e+01   1.000e+01   4.336e-06
Kaolinite        -0.00     5.71      5.71    1.000e+01   1.000e+01   2.419e-05
Muscovite        -0.00    12.97     12.97    1.000e+01   1.000e+01  -1.869e-05

-----------------------------Solution composition------------------------------

	Elements           Molality       Moles

	Al                3.348e-06   3.348e-06
	K                 1.869e-05   1.869e-05
	Si                7.684e-06   7.684e-06

----------------------------Description of solution----------------------------

                                       pH  =   9.139      Charge balance
                                       pe  =   8.321      Adjusted to redox equilibrium
       Specific Conductance (uS/cm, 25 oC) = 4
                          Density (g/cm3)  =   0.99700
                        Activity of water  =   1.000
                           Ionic strength  =   1.869e-05
                       Mass of water (kg)  =   1.000e+00
                 Total alkalinity (eq/kg)  =   2.873e-05
                    Total carbon (mol/kg)  =   0.000e+00
                       Total CO2 (mol/kg)  =   0.000e+00
                      Temperature (deg C)  =  25.00
                  Electrical balance (eq)  =  -9.724e-14
 Percent error, 100*(Cat-|An|)/(Cat+|An|)  =  -0.00
                               Iterations  =  12
                                  Total H  = 1.110124e+02
                                  Total O  = 5.550621e+01

----------------------------Distribution of species----------------------------

                                            Log       Log         Log     mole V
   Species          Molality    Activity  Molality  Activity     Gamma   cm3/mol

   OH-             1.404e-05   1.397e-05    -4.853    -4.855    -0.002     -3.76
   H+              7.305e-10   7.268e-10    -9.136    -9.139    -0.002      0.00
   H2O             5.551e+01   1.000e+00     1.744    -0.000     0.000     18.07
Al            3.348e-06
   Al(OH)4-        3.347e-06   3.330e-06    -5.475    -5.478    -0.002     46.00
   Al(OH)3         1.284e-09   1.284e-09    -8.891    -8.891     0.000     (0)  
   Al(OH)2+        6.366e-12   6.334e-12   -11.196   -11.198    -0.002     (0)  
   AlOH+2          5.994e-16   5.874e-16   -15.222   -15.231    -0.009     (0)  
   Al+3            4.496e-20   4.298e-20   -19.347   -19.367    -0.020    -44.85
H(0)          1.705e-38
   H2              8.526e-39   8.526e-39   -38.069   -38.069     0.000     20.00
K             1.869e-05
   K+              1.869e-05   1.860e-05    -4.728    -4.731    -0.002      8.78
   KOH             8.872e-11   8.872e-11   -10.052   -10.052     0.000     (0)  
O(0)          1.147e-16
   O2              5.734e-17   5.734e-17   -16.242   -16.242     0.000     35.00
Si            7.684e-06
   H4SiO4          6.383e-06   6.383e-06    -5.195    -5.195     0.000     51.00
   H3SiO4-         1.301e-06   1.295e-06    -5.886    -5.888    -0.002     (0)  
   H2SiO4-2        1.237e-10   1.212e-10    -9.908    -9.917    -0.009     (0)  

------------------------------Saturation indices-------------------------------

	Phase               SI   log IAP   log K(298 K,   1 atm)

	Al(OH)3(a)       -2.75      8.05   10.80  Al(OH)3
	Chalcedony       -1.64     -5.20   -3.55  SiO2
	Gibbsite         -0.00      8.05    8.05  Al(OH)3
	H2(g)           -34.97    -38.07   -3.10  H2
	H2O(g)           -1.50     -0.00    1.50  H2O
	K-feldspar       -5.22    -25.79  -20.57  KAlSi3O8
	K-mica            0.27     12.97   12.70  KAl3Si3O10(OH)2
	Kaolinite        -0.00      5.71    5.71  Al2Si2O5(OH)4
	Microcline       -4.00     -3.13    0.88  KAlSi3O8
	Muscovite        -0.00     12.97   12.97  KAl3Si3O10(OH)2
	O2(g)           -13.35    -16.24   -2.89  O2
	Quartz           -1.24     -5.20   -3.96  SiO2
	SiO2(a)          -2.48     -5.20   -2.71  SiO2


------------------
End of simulation.
------------------

-------------------------------------
Reading input data for simulation 10.
-------------------------------------

	USE solution 1
	EQUILIBRIUM_PHASES 1
	        Microcline      0.0     10.0
	        Muscovite       0.0     10.0
	        Kaolinite       0.0     10.0
	END
-----------------------------------------
Beginning of batch-reaction calculations.
-----------------------------------------

Reaction step 1.

Using solution 1.	PURE WATER
Using pure phase assemblage 1.	

-------------------------------Phase assemblage--------------------------------

                                                      Moles in assemblage
Phase               SI  log IAP  log K(T, P)   Initial       Final       Delta

Kaolinite        -0.00     5.71      5.71    1.000e+01   1.000e+01  -2.655e-04
Microcline        0.00     0.88      0.88    1.000e+01   1.000e+01  -3.438e-04
Muscovite         0.00    12.97     12.97    1.000e+01   1.000e+01   2.916e-04

-----------------------------Solution composition------------------------------

	Elements           Molality       Moles

	Al                1.204e-08   1.204e-08
	K                 5.217e-05   5.217e-05
	Si                6.875e-04   6.875e-04

----------------------------Description of solution----------------------------

                                       pH  =   8.694      Charge balance
                                       pe  =   9.200      Adjusted to redox equilibrium
       Specific Conductance (uS/cm, 25 oC) = 4
                          Density (g/cm3)  =   0.99703
                        Activity of water  =   1.000
                           Ionic strength  =   5.218e-05
                       Mass of water (kg)  =   1.000e+00
                 Total alkalinity (eq/kg)  =   5.221e-05
                    Total carbon (mol/kg)  =   0.000e+00
                       Total CO2 (mol/kg)  =   0.000e+00
                      Temperature (deg C)  =  25.00
                  Electrical balance (eq)  =  -1.824e-17
 Percent error, 100*(Cat-|An|)/(Cat+|An|)  =  -0.00
                               Iterations  =  13
                                  Total H  = 1.110129e+02
                                  Total O  = 5.550786e+01

----------------------------Distribution of species----------------------------

                                            Log       Log         Log     mole V
   Species          Molality    Activity  Molality  Activity     Gamma   cm3/mol

   OH-             5.064e-06   5.022e-06    -5.295    -5.299    -0.004     -3.76
   H+              2.039e-09   2.022e-09    -8.691    -8.694    -0.004      0.00
   H2O             5.551e+01   1.000e+00     1.744    -0.000     0.000     18.07
Al            1.204e-08
   Al(OH)4-        1.203e-08   1.193e-08    -7.920    -7.923    -0.004     46.01
   Al(OH)3         1.280e-11   1.280e-11   -10.893   -10.893     0.000     (0)  
   Al(OH)2+        1.771e-13   1.756e-13   -12.752   -12.755    -0.004     (0)  
   AlOH+2          4.686e-17   4.531e-17   -16.329   -16.344    -0.015     (0)  
   Al+3            9.940e-21   9.224e-21   -20.003   -20.035    -0.032    -44.83
H(0)          2.302e-39
   H2              1.151e-39   1.151e-39   -38.939   -38.939     0.000     20.00
K             5.217e-05
   K+              5.217e-05   5.174e-05    -4.283    -4.286    -0.004      8.79
   KOH             8.871e-11   8.871e-11   -10.052   -10.052     0.000     (0)  
O(0)          6.295e-15
   O2              3.147e-15   3.147e-15   -14.502   -14.502     0.000     35.00
Si            6.875e-04
   H4SiO4          6.405e-04   6.405e-04    -3.194    -3.194     0.000     51.00
   H3SiO4-         4.710e-05   4.670e-05    -4.327    -4.331    -0.004     (0)  
   H2SiO4-2        1.625e-09   1.571e-09    -8.789    -8.804    -0.015     (0)  

------------------------------Saturation indices-------------------------------

	Phase               SI   log IAP   log K(298 K,   1 atm)

	Al(OH)3(a)       -4.75      6.05   10.80  Al(OH)3
	Chalcedony        0.36     -3.19   -3.55  SiO2
	Gibbsite         -2.00      6.05    8.05  Al(OH)3
	H2(g)           -35.84    -38.94   -3.10  H2
	H2O(g)           -1.50     -0.00    1.50  H2O
	K-feldspar       -1.22    -21.79  -20.57  KAlSi3O8
	K-mica            0.27     12.97   12.70  KAl3Si3O10(OH)2
	Kaolinite        -0.00      5.71    5.71  Al2Si2O5(OH)4
	Microcline        0.00      0.88    0.88  KAlSi3O8
	Muscovite         0.00     12.97   12.97  KAl3Si3O10(OH)2
	O2(g)           -11.61    -14.50   -2.89  O2
	Quartz            0.76     -3.19   -3.96  SiO2
	SiO2(a)          -0.48     -3.19   -2.71  SiO2


------------------
End of simulation.
------------------

-------------------------------------
Reading input data for simulation 11.
-------------------------------------

-----------
End of run.
-----------

