   Input file: ex7
  Output file: ex7.out
Database file: ../database/phreeqc.dat

------------------
Reading data base.
------------------

	SOLUTION_MASTER_SPECIES
	SOLUTION_SPECIES
	PHASES
	EXCHANGE_MASTER_SPECIES
	EXCHANGE_SPECIES
	SURFACE_MASTER_SPECIES
	SURFACE_SPECIES
	RATES
	END
------------------------------------
Reading input data for simulation 1.
------------------------------------

	DATABASE ../database/phreeqc.dat
	knobs
		logfile
	TITLE Example 7.--Organic decomposition and bubble formation
	SOLUTION 1
	EQUILIBRIUM_PHASES 1
	        Calcite
	        CO2(g)  -1.5
	SAVE solution 1
	SELECTED_OUTPUT
	        file ex7.pun
	        si CO2(g) CH4(g) N2(g) NH3(g)
	        gases CO2(g) CH4(g) N2(g) NH3(g)
	END
-----
TITLE
-----

 Example 7.--Organic decomposition and bubble formation

-------------------------------------------
Beginning of initial solution calculations.
-------------------------------------------

Initial solution 1.	

-----------------------------Solution composition------------------------------

	Elements           Molality       Moles

	Pure water     

----------------------------Description of solution----------------------------

                                       pH  =   7.000    
                                       pe  =   4.000    
       Specific Conductance (uS/cm, 25 oC) = 0
                          Density (g/cm3)  =   0.99704
                        Activity of water  =   1.000
                           Ionic strength  =   1.002e-07
                       Mass of water (kg)  =   1.000e+00
                 Total alkalinity (eq/kg)  =   2.208e-10
                    Total carbon (mol/kg)  =   0.000e+00
                       Total CO2 (mol/kg)  =   0.000e+00
                      Temperature (deg C)  =  25.00
                  Electrical balance (eq)  =  -2.208e-10
 Percent error, 100*(Cat-|An|)/(Cat+|An|)  =  -0.11
                               Iterations  =   0
                                  Total H  = 1.110124e+02
                                  Total O  = 5.550622e+01

----------------------------Distribution of species----------------------------

                                               Log       Log       Log    mole V
   Species          Molality    Activity  Molality  Activity     Gamma   cm3/mol

   OH-             1.003e-07   1.002e-07    -6.999    -6.999    -0.000     -4.11
   H+              1.001e-07   1.000e-07    -7.000    -7.000    -0.000      0.00
   H2O             5.551e+01   1.000e+00     1.744     0.000     0.000     18.07
H(0)          1.416e-25
   H2              7.079e-26   7.079e-26   -25.150   -25.150     0.000     28.61
O(0)          0.000e+00
   O2              0.000e+00   0.000e+00   -42.080   -42.080     0.000     30.40

------------------------------Saturation indices-------------------------------

	Phase               SI   log IAP   log K(298 K,   1 atm)

	H2(g)           -22.05    -25.15   -3.10  H2
	H2O(g)           -1.50      0.00    1.50  H2O
	O2(g)           -39.19    -42.08   -2.89  O2


-----------------------------------------
Beginning of batch-reaction calculations.
-----------------------------------------

Reaction step 1.

Using solution 1.	
Using pure phase assemblage 1.	

-------------------------------Phase assemblage--------------------------------

                                                      Moles in assemblage
Phase               SI  log IAP  log K(T, P)   Initial       Final       Delta

CO2(g)           -1.50    -2.97     -1.47    1.000e+01   9.996e+00  -3.569e-03
Calcite          -0.00    -8.48     -8.48    1.000e+01   9.997e+00  -2.503e-03

-----------------------------Solution composition------------------------------

	Elements           Molality       Moles

	C                 6.072e-03   6.071e-03
	Ca                2.503e-03   2.503e-03

----------------------------Description of solution----------------------------

                                       pH  =   6.971      Charge balance
                                       pe  =  -1.488      Adjusted to redox equilibrium
       Specific Conductance (uS/cm, 25 oC) = 455
                          Density (g/cm3)  =   0.99739
                        Activity of water  =   1.000
                           Ionic strength  =   7.284e-03
                       Mass of water (kg)  =   1.000e+00
                 Total alkalinity (eq/kg)  =   5.005e-03
                       Total CO2 (mol/kg)  =   6.072e-03
                      Temperature (deg C)  =  25.00
                  Electrical balance (eq)  =  -2.201e-10
 Percent error, 100*(Cat-|An|)/(Cat+|An|)  =  -0.00
                               Iterations  =  17
                                  Total H  = 1.110124e+02
                                  Total O  = 5.552086e+01

----------------------------Distribution of species----------------------------

                                               Log       Log       Log    mole V
   Species          Molality    Activity  Molality  Activity     Gamma   cm3/mol

   H+              1.158e-07   1.069e-07    -6.936    -6.971    -0.035      0.00
   OH-             1.027e-07   9.370e-08    -6.989    -7.028    -0.040     -4.02
   H2O             5.551e+01   9.999e-01     1.744    -0.000     0.000     18.07
C(-4)         3.629e-23
   CH4             3.629e-23   3.636e-23   -22.440   -22.439     0.001     32.22
C(4)          6.072e-03
   HCO3-           4.883e-03   4.476e-03    -2.311    -2.349    -0.038     24.65
   CO2             1.075e-03   1.076e-03    -2.969    -2.968     0.001     24.74
   CaHCO3+         1.051e-04   9.637e-05    -3.978    -4.016    -0.038      9.72
   CaCO3           5.556e-06   5.565e-06    -5.255    -5.255     0.001    -14.60
   CO3-2           2.781e-06   1.963e-06    -5.556    -5.707    -0.151     -3.78
Ca            2.503e-03
   Ca+2            2.392e-03   1.687e-03    -2.621    -2.773    -0.152    -18.05
   CaHCO3+         1.051e-04   9.637e-05    -3.978    -4.016    -0.038      9.72
   CaCO3           5.556e-06   5.565e-06    -5.255    -5.255     0.001    -14.60
   CaOH+           2.864e-09   2.618e-09    -8.543    -8.582    -0.039     (0)  
H(0)          1.531e-14
   H2              7.653e-15   7.666e-15   -14.116   -14.115     0.001     28.61
O(0)          0.000e+00
   O2              0.000e+00   0.000e+00   -64.150   -64.149     0.001     30.40

------------------------------Saturation indices-------------------------------

	Phase               SI   log IAP   log K(298 K,   1 atm)

	Aragonite        -0.14     -8.48   -8.34  CaCO3
	Calcite          -0.00     -8.48   -8.48  CaCO3
	CH4(g)          -19.60    -22.44   -2.84  CH4
	CO2(g)           -1.50     -2.97   -1.47  CO2	 Pressure   0.0 atm, phi 1.000.
	H2(g)           -11.01    -14.12   -3.10  H2
	H2O(g)           -1.50     -0.00    1.50  H2O
	O2(g)           -61.26    -64.15   -2.89  O2


------------------
End of simulation.
------------------

------------------------------------
Reading input data for simulation 2.
------------------------------------

	USE solution 1
	GAS_PHASE 1
	        pressure       1.1
	        CO2(g)          0.0
	        CH4(g)          0.0
	        N2(g)           0.0
	        NH3(g)          0.0
	REACTION 1
	        (CH2O)N0.07     1.0
	        1. 2. 3. 4. 8. 16. 32 64. 125. 250. 500. 1000. mmol
	END
-----------------------------------------
Beginning of batch-reaction calculations.
-----------------------------------------

Reaction step 1.

Using solution 1.	Solution after simulation 1.
Using gas phase 1.	
Using reaction 1.	

Reaction 1.	

	  1.000e-03 moles of the following reaction have been added:

	                 Relative
	Reactant            moles

	(CH2O)N0.07          1.00000

	                 Relative
	Element             moles
	C                    1.00000
	H                    2.00000
	N                    0.07000
	O                    1.00000

----------------Fixed-pressure gas phase 1 dissolved completely----------------

-----------------------------Solution composition------------------------------

	Elements           Molality       Moles

	C                 7.072e-03   7.071e-03
	Ca                2.503e-03   2.503e-03
	N                 7.000e-05   7.000e-05

----------------------------Description of solution----------------------------

                                       pH  =   6.824      Charge balance
                                       pe  =  -3.712      Adjusted to redox equilibrium
       Specific Conductance (uS/cm, 25 oC) = 458
                          Density (g/cm3)  =   0.99740
                        Activity of water  =   1.000
                           Ionic strength  =   7.355e-03
                       Mass of water (kg)  =   1.000e+00
                 Total alkalinity (eq/kg)  =   5.075e-03
                       Total CO2 (mol/kg)  =   6.598e-03
                      Temperature (deg C)  =  25.00
                           Pressure (atm)  =  1.10
                  Electrical balance (eq)  =  -2.201e-10
 Percent error, 100*(Cat-|An|)/(Cat+|An|)  =  -0.00
                               Iterations  =  13
                                  Total H  = 1.110144e+02
                                  Total O  = 5.552186e+01

----------------------------Distribution of species----------------------------

                                               Log       Log       Log    mole V
   Species          Molality    Activity  Molality  Activity     Gamma   cm3/mol

   H+              1.625e-07   1.500e-07    -6.789    -6.824    -0.035      0.00
   OH-             7.324e-08   6.682e-08    -7.135    -7.175    -0.040     -4.02
   H2O             5.551e+01   9.998e-01     1.744    -0.000     0.000     18.07
C(-4)         4.738e-04
   CH4             4.738e-04   4.746e-04    -3.324    -3.324     0.001     32.22
C(4)          6.598e-03
   HCO3-           4.956e-03   4.541e-03    -2.305    -2.343    -0.038     24.65
   CO2             1.529e-03   1.531e-03    -2.816    -2.815     0.001     24.74
   CaHCO3+         1.066e-04   9.764e-05    -3.972    -4.010    -0.038      9.72
   CaCO3           4.014e-06   4.021e-06    -5.396    -5.396     0.001    -14.60
   CO3-2           2.015e-06   1.420e-06    -5.696    -5.848    -0.152     -3.78
Ca            2.503e-03
   Ca+2            2.392e-03   1.685e-03    -2.621    -2.773    -0.152    -18.04
   CaHCO3+         1.066e-04   9.764e-05    -3.972    -4.010    -0.038      9.72
   CaCO3           4.014e-06   4.021e-06    -5.396    -5.396     0.001    -14.60
   CaOH+           2.040e-09   1.864e-09    -8.690    -8.729    -0.039     (0)  
H(0)          8.423e-10
   H2              4.212e-10   4.219e-10    -9.376    -9.375     0.001     28.61
N(-3)         6.986e-05
   NH4+            6.962e-05   6.337e-05    -4.157    -4.198    -0.041     15.48
   NH3             2.404e-07   2.408e-07    -6.619    -6.618     0.001     24.32
N(0)          1.420e-07
   N2              7.101e-08   7.113e-08    -7.149    -7.148     0.001     29.29
N(3)          0.000e+00
   NO2-            0.000e+00   0.000e+00   -62.343   -62.383    -0.040     25.02
N(5)          0.000e+00
   NO3-            0.000e+00   0.000e+00   -84.688   -84.728    -0.040     29.50
O(0)          0.000e+00
   O2              0.000e+00   0.000e+00   -73.631   -73.631     0.001     30.40

------------------------------Saturation indices-------------------------------

	Phase               SI   log IAP   log K(298 K,   1 atm)

	Aragonite        -0.29     -8.62   -8.34  CaCO3
	Calcite          -0.14     -8.62   -8.48  CaCO3
	CH4(g)           -0.48     -3.32   -2.84  CH4
	CO2(g)           -1.35     -2.81   -1.47  CO2
	H2(g)            -6.27     -9.37   -3.10  H2
	H2O(g)           -1.50     -0.00    1.50  H2O
	N2(g)            -3.97     -7.15   -3.18  N2
	NH3(g)           -8.41     -6.62    1.80  NH3
	O2(g)           -70.74    -73.63   -2.89  O2


Reaction step 2.

Using solution 1.	Solution after simulation 1.
Using gas phase 1.	
Using reaction 1.	

Reaction 1.	

	  2.000e-03 moles of the following reaction have been added:

	                 Relative
	Reactant            moles

	(CH2O)N0.07          1.00000

	                 Relative
	Element             moles
	C                    1.00000
	H                    2.00000
	N                    0.07000
	O                    1.00000

----------------Fixed-pressure gas phase 1 dissolved completely----------------

-----------------------------Solution composition------------------------------

	Elements           Molality       Moles

	C                 8.072e-03   8.071e-03
	Ca                2.503e-03   2.503e-03
	N                 1.400e-04   1.400e-04

----------------------------Description of solution----------------------------

                                       pH  =   6.717      Charge balance
                                       pe  =  -3.628      Adjusted to redox equilibrium
       Specific Conductance (uS/cm, 25 oC) = 460
                          Density (g/cm3)  =   0.99740
                        Activity of water  =   1.000
                           Ionic strength  =   7.424e-03
                       Mass of water (kg)  =   1.000e+00
                 Total alkalinity (eq/kg)  =   5.145e-03
                       Total CO2 (mol/kg)  =   7.124e-03
                      Temperature (deg C)  =  25.00
                           Pressure (atm)  =  1.10
                  Electrical balance (eq)  =  -2.201e-10
 Percent error, 100*(Cat-|An|)/(Cat+|An|)  =  -0.00
                               Iterations  =  29
                                  Total H  = 1.110164e+02
                                  Total O  = 5.552286e+01

----------------------------Distribution of species----------------------------

                                               Log       Log       Log    mole V
   Species          Molality    Activity  Molality  Activity     Gamma   cm3/mol

   H+              2.081e-07   1.919e-07    -6.682    -6.717    -0.035      0.00
   OH-             5.725e-08   5.221e-08    -7.242    -7.282    -0.040     -4.02
   H2O             5.551e+01   9.998e-01     1.744    -0.000     0.000     18.07
C(-4)         9.476e-04
   CH4             9.476e-04   9.493e-04    -3.023    -3.023     0.001     32.22
C(4)          7.124e-03
   HCO3-           5.027e-03   4.605e-03    -2.299    -2.337    -0.038     24.65
   CO2             1.984e-03   1.987e-03    -2.702    -2.702     0.001     24.74
   CaHCO3+         1.079e-04   9.884e-05    -3.967    -4.005    -0.038      9.72
   CaCO3           3.175e-06   3.180e-06    -5.498    -5.498     0.001    -14.60
   CO3-2           1.599e-06   1.125e-06    -5.796    -5.949    -0.152     -3.78
Ca            2.503e-03
   Ca+2            2.392e-03   1.682e-03    -2.621    -2.774    -0.153    -18.04
   CaHCO3+         1.079e-04   9.884e-05    -3.967    -4.005    -0.038      9.72
   CaCO3           3.175e-06   3.180e-06    -5.498    -5.498     0.001    -14.60
   CaOH+           1.592e-09   1.454e-09    -8.798    -8.837    -0.039     (0)  
H(0)          9.385e-10
   H2              4.692e-10   4.700e-10    -9.329    -9.328     0.001     28.61
N(-3)         1.398e-04
   NH4+            1.394e-04   1.268e-04    -3.856    -3.897    -0.041     15.48
   NH3             3.759e-07   3.765e-07    -6.425    -6.424     0.001     24.32
N(0)          2.510e-07
   N2              1.255e-07   1.257e-07    -6.901    -6.901     0.001     29.29
N(3)          0.000e+00
   NO2-            0.000e+00   0.000e+00   -62.396   -62.437    -0.041     25.02
N(5)          0.000e+00
   NO3-            0.000e+00   0.000e+00   -84.789   -84.829    -0.041     29.50
O(0)          0.000e+00
   O2              0.000e+00   0.000e+00   -73.725   -73.725     0.001     30.40

------------------------------Saturation indices-------------------------------

	Phase               SI   log IAP   log K(298 K,   1 atm)

	Aragonite        -0.39     -8.72   -8.34  CaCO3
	Calcite          -0.24     -8.72   -8.48  CaCO3
	CH4(g)           -0.18     -3.02   -2.84  CH4
	CO2(g)           -1.23     -2.70   -1.47  CO2
	H2(g)            -6.23     -9.33   -3.10  H2
	H2O(g)           -1.50     -0.00    1.50  H2O
	N2(g)            -3.72     -6.90   -3.18  N2
	NH3(g)           -8.22     -6.42    1.80  NH3
	O2(g)           -70.83    -73.72   -2.89  O2


Reaction step 3.

Using solution 1.	Solution after simulation 1.
Using gas phase 1.	
Using reaction 1.	

Reaction 1.	

	  3.000e-03 moles of the following reaction have been added:

	                 Relative
	Reactant            moles

	(CH2O)N0.07          1.00000

	                 Relative
	Element             moles
	C                    1.00000
	H                    2.00000
	N                    0.07000
	O                    1.00000

----------------Fixed-pressure gas phase 1 dissolved completely----------------

-----------------------------Solution composition------------------------------

	Elements           Molality       Moles

	C                 9.072e-03   9.071e-03
	Ca                2.503e-03   2.503e-03
	N                 2.100e-04   2.100e-04

----------------------------Description of solution----------------------------

                                       pH  =   6.633      Charge balance
                                       pe  =  -3.555      Adjusted to redox equilibrium
       Specific Conductance (uS/cm, 25 oC) = 463
                          Density (g/cm3)  =   0.99741
                        Activity of water  =   1.000
                           Ionic strength  =   7.492e-03
                       Mass of water (kg)  =   9.999e-01
                 Total alkalinity (eq/kg)  =   5.215e-03
                       Total CO2 (mol/kg)  =   7.650e-03
                      Temperature (deg C)  =  25.00
                           Pressure (atm)  =  1.10
                  Electrical balance (eq)  =  -2.201e-10
 Percent error, 100*(Cat-|An|)/(Cat+|An|)  =  -0.00
                               Iterations  =  25
                                  Total H  = 1.110184e+02
                                  Total O  = 5.552386e+01

----------------------------Distribution of species----------------------------

                                               Log       Log       Log    mole V
   Species          Molality    Activity  Molality  Activity     Gamma   cm3/mol

   H+              2.525e-07   2.328e-07    -6.598    -6.633    -0.035      0.00
   OH-             4.721e-08   4.304e-08    -7.326    -7.366    -0.040     -4.02
   H2O             5.551e+01   9.998e-01     1.744    -0.000     0.000     18.07
C(-4)         1.421e-03
   CH4             1.421e-03   1.424e-03    -2.847    -2.847     0.001     32.22
C(4)          7.650e-03
   HCO3-           5.097e-03   4.668e-03    -2.293    -2.331    -0.038     24.65
   CO2             2.440e-03   2.444e-03    -2.613    -2.612     0.001     24.74
   CaHCO3+         1.092e-04   1.000e-04    -3.962    -4.000    -0.038      9.72
   CaCO3           2.648e-06   2.653e-06    -5.577    -5.576     0.001    -14.60
   CO3-2           1.338e-06   9.402e-07    -5.874    -6.027    -0.153     -3.78
Ca            2.503e-03
   Ca+2            2.391e-03   1.679e-03    -2.621    -2.775    -0.153    -18.04
   CaHCO3+         1.092e-04   1.000e-04    -3.962    -4.000    -0.038      9.72
   CaCO3           2.648e-06   2.653e-06    -5.577    -5.576     0.001    -14.60
   CaOH+           1.311e-09   1.197e-09    -8.882    -8.922    -0.039     (0)  
H(0)          9.863e-10
   H2              4.931e-10   4.940e-10    -9.307    -9.306     0.001     28.61
N(-3)         2.097e-04
   NH4+            2.092e-04   1.903e-04    -3.679    -3.721    -0.041     15.48
   NH3             4.649e-07   4.657e-07    -6.333    -6.332     0.001     24.32
N(0)          3.309e-07
   N2              1.654e-07   1.657e-07    -6.781    -6.781     0.001     29.29
N(3)          0.000e+00
   NO2-            0.000e+00   0.000e+00   -62.452   -62.493    -0.041     25.02
N(5)          0.000e+00
   NO3-            0.000e+00   0.000e+00   -84.866   -84.907    -0.041     29.50
O(0)          0.000e+00
   O2              0.000e+00   0.000e+00   -73.768   -73.768     0.001     30.40

------------------------------Saturation indices-------------------------------

	Phase               SI   log IAP   log K(298 K,   1 atm)

	Aragonite        -0.47     -8.80   -8.34  CaCO3
	Calcite          -0.32     -8.80   -8.48  CaCO3
	CH4(g)           -0.00     -2.85   -2.84  CH4
	CO2(g)           -1.14     -2.61   -1.47  CO2
	H2(g)            -6.21     -9.31   -3.10  H2
	H2O(g)           -1.50     -0.00    1.50  H2O
	N2(g)            -3.60     -6.78   -3.18  N2
	NH3(g)           -8.13     -6.33    1.80  NH3
	O2(g)           -70.88    -73.77   -2.89  O2


Reaction step 4.

Using solution 1.	Solution after simulation 1.
Using gas phase 1.	
Using reaction 1.	

Reaction 1.	

	  4.000e-03 moles of the following reaction have been added:

	                 Relative
	Reactant            moles

	(CH2O)N0.07          1.00000

	                 Relative
	Element             moles
	C                    1.00000
	H                    2.00000
	N                    0.07000
	O                    1.00000

-----------------------------------Gas phase-----------------------------------

Total pressure:  1.10      atmospheres          (Peng-Robinson calculation)
    Gas volume:   1.07e-02 liters
  Molar volume:   2.22e+01 liters/mole
   P * Vm / RT:  0.99728  (Compressibility Factor Z) 

                                                        Moles in gas
                                            ----------------------------------
Component         log P           P    phi     Initial       Final       Delta

CH4(g)             0.01   1.015e+00  0.998   0.000e+00   4.444e-04   4.444e-04
CO2(g)            -1.07   8.459e-02  0.994   0.000e+00   3.704e-05   3.704e-05
N2(g)             -3.44   3.651e-04  1.000   0.000e+00   1.599e-07   1.599e-07
NH3(g)            -8.06   8.639e-09  0.992   0.000e+00   3.782e-12   3.782e-12

-----------------------------Solution composition------------------------------

	Elements           Molality       Moles

	C                 9.590e-03   9.590e-03
	Ca                2.503e-03   2.503e-03
	N                 2.797e-04   2.797e-04

----------------------------Description of solution----------------------------

                                       pH  =   6.570      Charge balance
                                       pe  =  -3.484      Adjusted to redox equilibrium
       Specific Conductance (uS/cm, 25 oC) = 466
                          Density (g/cm3)  =   0.99742
                        Activity of water  =   1.000
                           Ionic strength  =   7.560e-03
                       Mass of water (kg)  =   9.999e-01
                 Total alkalinity (eq/kg)  =   5.284e-03
                       Total CO2 (mol/kg)  =   8.139e-03
                      Temperature (deg C)  =  25.00
                           Pressure (atm)  =  1.10
                  Electrical balance (eq)  =  -2.201e-10
 Percent error, 100*(Cat-|An|)/(Cat+|An|)  =  -0.00
                               Iterations  =  18
                                  Total H  = 1.110187e+02
                                  Total O  = 5.552479e+01

----------------------------Distribution of species----------------------------

                                               Log       Log       Log    mole V
   Species          Molality    Activity  Molality  Activity     Gamma   cm3/mol

   H+              2.921e-07   2.693e-07    -6.535    -6.570    -0.035      0.00
   OH-             4.083e-08   3.721e-08    -7.389    -7.429    -0.040     -4.02
   H2O             5.551e+01   9.998e-01     1.744    -0.000     0.000     18.07
C(-4)         1.451e-03
   CH4             1.451e-03   1.453e-03    -2.838    -2.838     0.001     32.22
C(4)          8.139e-03
   HCO3-           5.167e-03   4.729e-03    -2.287    -2.325    -0.038     24.65
   CO2             2.859e-03   2.864e-03    -2.544    -2.543     0.001     24.74
   CaHCO3+         1.105e-04   1.012e-04    -3.957    -3.995    -0.038      9.72
   CaCO3           2.316e-06   2.320e-06    -5.635    -5.635     0.001    -14.60
   CO3-2           1.173e-06   8.237e-07    -5.931    -6.084    -0.154     -3.78
Ca            2.503e-03
   Ca+2            2.390e-03   1.676e-03    -2.622    -2.776    -0.154    -18.04
   CaHCO3+         1.105e-04   1.012e-04    -3.957    -3.995    -0.038      9.72
   CaCO3           2.316e-06   2.320e-06    -5.635    -5.635     0.001    -14.60
   CaOH+           1.132e-09   1.033e-09    -8.946    -8.986    -0.040     (0)  
H(0)          9.528e-10
   H2              4.764e-10   4.772e-10    -9.322    -9.321     0.001     28.61
N(-3)         2.792e-04
   NH4+            2.787e-04   2.533e-04    -3.555    -3.596    -0.041     15.48
   NH3             5.352e-07   5.361e-07    -6.271    -6.271     0.001     24.32
N(0)          4.864e-07
   N2              2.432e-07   2.436e-07    -6.614    -6.613     0.001     29.29
N(3)          0.000e+00
   NO2-            0.000e+00   0.000e+00   -62.409   -62.450    -0.041     25.02
N(5)          0.000e+00
   NO3-            0.000e+00   0.000e+00   -84.808   -84.849    -0.041     29.50
O(0)          0.000e+00
   O2              0.000e+00   0.000e+00   -73.738   -73.738     0.001     30.40

------------------------------Saturation indices-------------------------------

	Phase               SI   log IAP   log K(298 K,   1 atm)

	Aragonite        -0.52     -8.86   -8.34  CaCO3
	Calcite          -0.38     -8.86   -8.48  CaCO3
	CH4(g)            0.01     -2.84   -2.84  CH4	 Pressure   1.0 atm, phi 0.998.
	CO2(g)           -1.08     -2.54   -1.47  CO2	 Pressure   0.1 atm, phi 0.994.
	H2(g)            -6.22     -9.32   -3.10  H2
	H2O(g)           -1.50     -0.00    1.50  H2O
	N2(g)            -3.44     -6.61   -3.18  N2	 Pressure   0.0 atm, phi 1.000.
	NH3(g)           -8.07     -6.27    1.80  NH3	 Pressure   0.0 atm, phi 0.992.
	O2(g)           -70.85    -73.74   -2.89  O2


Reaction step 5.

Using solution 1.	Solution after simulation 1.
Using gas phase 1.	
Using reaction 1.	

Reaction 1.	

	  8.000e-03 moles of the following reaction have been added:

	                 Relative
	Reactant            moles

	(CH2O)N0.07          1.00000

	                 Relative
	Element             moles
	C                    1.00000
	H                    2.00000
	N                    0.07000
	O                    1.00000

-----------------------------------Gas phase-----------------------------------

Total pressure:  1.10      atmospheres          (Peng-Robinson calculation)
    Gas volume:   6.06e-02 liters
  Molar volume:   2.22e+01 liters/mole
   P * Vm / RT:  0.99716  (Compressibility Factor Z) 

                                                        Moles in gas
                                            ----------------------------------
Component         log P           P    phi     Initial       Final       Delta

CH4(g)            -0.01   9.688e-01  0.998   0.000e+00   2.408e-03   2.408e-03
CO2(g)            -0.89   1.302e-01  0.994   0.000e+00   3.235e-04   3.235e-04
N2(g)             -3.02   9.578e-04  1.000   0.000e+00   2.380e-06   2.380e-06
NH3(g)            -7.93   1.170e-08  0.992   0.000e+00   2.907e-11   2.907e-11

-----------------------------Solution composition------------------------------

	Elements           Molality       Moles

	C                 1.134e-02   1.134e-02
	Ca                2.503e-03   2.503e-03
	N                 5.553e-04   5.552e-04

----------------------------Description of solution----------------------------

                                       pH  =   6.404      Charge balance
                                       pe  =  -3.293      Adjusted to redox equilibrium
       Specific Conductance (uS/cm, 25 oC) = 476
                          Density (g/cm3)  =   0.99746
                        Activity of water  =   1.000
                           Ionic strength  =   7.827e-03
                       Mass of water (kg)  =   9.999e-01
                 Total alkalinity (eq/kg)  =   5.559e-03
                       Total CO2 (mol/kg)  =   9.956e-03
                      Temperature (deg C)  =  25.00
                           Pressure (atm)  =  1.10
                  Electrical balance (eq)  =  -2.201e-10
 Percent error, 100*(Cat-|An|)/(Cat+|An|)  =  -0.00
                               Iterations  =  17
                                  Total H  = 1.110188e+02
                                  Total O  = 5.552821e+01

----------------------------Distribution of species----------------------------

                                               Log       Log       Log    mole V
   Species          Molality    Activity  Molality  Activity     Gamma   cm3/mol

   H+              4.281e-07   3.943e-07    -6.368    -6.404    -0.036      0.00
   OH-             2.793e-08   2.542e-08    -7.554    -7.595    -0.041     -4.01
   H2O             5.551e+01   9.998e-01     1.744    -0.000     0.000     18.07
C(-4)         1.385e-03
   CH4             1.385e-03   1.387e-03    -2.859    -2.858     0.001     32.22
C(4)          9.956e-03
   HCO3-           5.439e-03   4.971e-03    -2.265    -2.304    -0.039     24.66
   CO2             4.400e-03   4.408e-03    -2.357    -2.356     0.001     24.74
   CaHCO3+         1.155e-04   1.056e-04    -3.937    -3.976    -0.039      9.73
   CaCO3           1.651e-06   1.654e-06    -5.782    -5.782     0.001    -14.60
   CO3-2           8.470e-07   5.914e-07    -6.072    -6.228    -0.156     -3.77
Ca            2.503e-03
   Ca+2            2.386e-03   1.665e-03    -2.622    -2.779    -0.156    -18.04
   CaHCO3+         1.155e-04   1.056e-04    -3.937    -3.976    -0.039      9.73
   CaCO3           1.651e-06   1.654e-06    -5.782    -5.782     0.001    -14.60
   CaOH+           7.685e-10   7.005e-10    -9.114    -9.155    -0.040     (0)  
H(0)          8.455e-10
   H2              4.227e-10   4.235e-10    -9.374    -9.373     0.001     28.61
N(-3)         5.540e-04
   NH4+            5.533e-04   5.022e-04    -3.257    -3.299    -0.042     15.48
   NH3             7.246e-07   7.259e-07    -6.140    -6.139     0.001     24.32
N(0)          1.276e-06
   N2              6.379e-07   6.390e-07    -6.195    -6.194     0.001     29.29
N(3)          0.000e+00
   NO2-            0.000e+00   0.000e+00   -62.287   -62.329    -0.042     25.02
N(5)          0.000e+00
   NO3-            0.000e+00   0.000e+00   -84.634   -84.675    -0.042     29.50
O(0)          0.000e+00
   O2              0.000e+00   0.000e+00   -73.635   -73.634     0.001     30.40

------------------------------Saturation indices-------------------------------

	Phase               SI   log IAP   log K(298 K,   1 atm)

	Aragonite        -0.67     -9.01   -8.34  CaCO3
	Calcite          -0.53     -9.01   -8.48  CaCO3
	CH4(g)           -0.01     -2.86   -2.84  CH4	 Pressure   1.0 atm, phi 0.998.
	CO2(g)           -0.89     -2.36   -1.47  CO2	 Pressure   0.1 atm, phi 0.994.
	H2(g)            -6.27     -9.37   -3.10  H2
	H2O(g)           -1.50     -0.00    1.50  H2O
	N2(g)            -3.02     -6.19   -3.18  N2	 Pressure   0.0 atm, phi 1.000.
	NH3(g)           -7.94     -6.14    1.80  NH3	 Pressure   0.0 atm, phi 0.992.
	O2(g)           -70.74    -73.63   -2.89  O2


Reaction step 6.

Using solution 1.	Solution after simulation 1.
Using gas phase 1.	
Using reaction 1.	

Reaction 1.	

	  1.600e-02 moles of the following reaction have been added:

	                 Relative
	Reactant            moles

	(CH2O)N0.07          1.00000

	                 Relative
	Element             moles
	C                    1.00000
	H                    2.00000
	N                    0.07000
	O                    1.00000

-----------------------------------Gas phase-----------------------------------

Total pressure:  1.10      atmospheres          (Peng-Robinson calculation)
    Gas volume:   1.73e-01 liters
  Molar volume:   2.22e+01 liters/mole
   P * Vm / RT:  0.99694  (Compressibility Factor Z) 

                                                        Moles in gas
                                            ----------------------------------
Component         log P           P    phi     Initial       Final       Delta

CH4(g)            -0.05   8.920e-01  0.998   0.000e+00   6.320e-03   6.320e-03
CO2(g)            -0.69   2.054e-01  0.994   0.000e+00   1.455e-03   1.455e-03
N2(g)             -2.58   2.601e-03  1.000   0.000e+00   1.843e-05   1.843e-05
NH3(g)            -7.80   1.575e-08  0.992   0.000e+00   1.116e-10   1.116e-10

-----------------------------Solution composition------------------------------

	Elements           Molality       Moles

	C                 1.430e-02   1.430e-02
	Ca                2.503e-03   2.503e-03
	N                 1.083e-03   1.083e-03

----------------------------Description of solution----------------------------

                                       pH  =   6.245      Charge balance
                                       pe  =  -3.104      Adjusted to redox equilibrium
       Specific Conductance (uS/cm, 25 oC) = 496
                          Density (g/cm3)  =   0.99753
                        Activity of water  =   1.000
                           Ionic strength  =   8.335e-03
                       Mass of water (kg)  =   9.999e-01
                 Total alkalinity (eq/kg)  =   6.085e-03
                       Total CO2 (mol/kg)  =   1.302e-02
                      Temperature (deg C)  =  25.00
                           Pressure (atm)  =  1.10
                  Electrical balance (eq)  =  -2.199e-10
 Percent error, 100*(Cat-|An|)/(Cat+|An|)  =  -0.00
                               Iterations  =  19
                                  Total H  = 1.110192e+02
                                  Total O  = 5.553395e+01

----------------------------Distribution of species----------------------------

                                               Log       Log       Log    mole V
   Species          Molality    Activity  Molality  Activity     Gamma   cm3/mol

   H+              6.193e-07   5.692e-07    -6.208    -6.245    -0.037      0.00
   OH-             1.940e-08   1.760e-08    -7.712    -7.754    -0.042     -4.01
   H2O             5.551e+01   9.997e-01     1.744    -0.000     0.000     18.07
C(-4)         1.275e-03
   CH4             1.275e-03   1.277e-03    -2.895    -2.894     0.001     32.22
C(4)          1.302e-02
   CO2             6.939e-03   6.952e-03    -2.159    -2.158     0.001     24.74
   HCO3-           5.956e-03   5.431e-03    -2.225    -2.265    -0.040     24.66
   CaHCO3+         1.248e-04   1.138e-04    -3.904    -3.944    -0.040      9.73
   CaCO3           1.232e-06   1.234e-06    -5.909    -5.909     0.001    -14.60
   CO3-2           6.473e-07   4.475e-07    -6.189    -6.349    -0.160     -3.76
Ca            2.503e-03
   Ca+2            2.377e-03   1.642e-03    -2.624    -2.785    -0.161    -18.03
   CaHCO3+         1.248e-04   1.138e-04    -3.904    -3.944    -0.040      9.73
   CaCO3           1.232e-06   1.234e-06    -5.909    -5.909     0.001    -14.60
   CaOH+           5.265e-10   4.786e-10    -9.279    -9.320    -0.041     (0)  
H(0)          7.389e-10
   H2              3.694e-10   3.701e-10    -9.432    -9.432     0.001     28.61
N(-3)         1.080e-03
   NH4+            1.079e-03   9.764e-04    -2.967    -3.010    -0.043     15.48
   NH3             9.756e-07   9.775e-07    -6.011    -6.010     0.001     24.32
N(0)          3.464e-06
   N2              1.732e-06   1.736e-06    -5.761    -5.761     0.001     29.29
N(3)          0.000e+00
   NO2-            0.000e+00   0.000e+00   -62.141   -62.183    -0.043     25.02
N(5)          0.000e+00
   NO3-            0.000e+00   0.000e+00   -84.429   -84.472    -0.043     29.51
O(0)          0.000e+00
   O2              0.000e+00   0.000e+00   -73.518   -73.517     0.001     30.40

------------------------------Saturation indices-------------------------------

	Phase               SI   log IAP   log K(298 K,   1 atm)

	Aragonite        -0.80     -9.13   -8.34  CaCO3
	Calcite          -0.65     -9.13   -8.48  CaCO3
	CH4(g)           -0.05     -2.89   -2.84  CH4	 Pressure   0.9 atm, phi 0.998.
	CO2(g)           -0.69     -2.16   -1.47  CO2	 Pressure   0.2 atm, phi 0.994.
	H2(g)            -6.33     -9.43   -3.10  H2
	H2O(g)           -1.50     -0.00    1.50  H2O
	N2(g)            -2.58     -5.76   -3.18  N2	 Pressure   0.0 atm, phi 1.000.
	NH3(g)           -7.81     -6.01    1.80  NH3	 Pressure   0.0 atm, phi 0.992.
	O2(g)           -70.62    -73.52   -2.89  O2


Reaction step 7.

Using solution 1.	Solution after simulation 1.
Using gas phase 1.	
Using reaction 1.	

Reaction 1.	

	  3.200e-02 moles of the following reaction have been added:

	                 Relative
	Reactant            moles

	(CH2O)N0.07          1.00000

	                 Relative
	Element             moles
	C                    1.00000
	H                    2.00000
	N                    0.07000
	O                    1.00000

-----------------------------------Gas phase-----------------------------------

Total pressure:  1.10      atmospheres          (Peng-Robinson calculation)
    Gas volume:   4.38e-01 liters
  Molar volume:   2.22e+01 liters/mole
   P * Vm / RT:  0.99665  (Compressibility Factor Z) 

                                                        Moles in gas
                                            ----------------------------------
Component         log P           P    phi     Initial       Final       Delta

CH4(g)            -0.10   7.865e-01  0.998   0.000e+00   1.414e-02   1.414e-02
CO2(g)            -0.51   3.061e-01  0.994   0.000e+00   5.504e-03   5.504e-03
N2(g)             -2.13   7.416e-03  1.000   0.000e+00   1.333e-04   1.333e-04
NH3(g)            -7.66   2.185e-08  0.992   0.000e+00   3.929e-10   3.929e-10

-----------------------------Solution composition------------------------------

	Elements           Molality       Moles

	C                 1.843e-02   1.843e-02
	Ca                2.503e-03   2.503e-03
	N                 1.974e-03   1.973e-03

----------------------------Description of solution----------------------------

                                       pH  =   6.129      Charge balance
                                       pe  =  -2.960      Adjusted to redox equilibrium
       Specific Conductance (uS/cm, 25 oC) = 529
                          Density (g/cm3)  =   0.99763
                        Activity of water  =   1.000
                           Ionic strength  =   9.189e-03
                       Mass of water (kg)  =   9.999e-01
                 Total alkalinity (eq/kg)  =   6.969e-03
                       Total CO2 (mol/kg)  =   1.731e-02
                      Temperature (deg C)  =  25.00
                           Pressure (atm)  =  1.10
                  Electrical balance (eq)  =  -2.201e-10
 Percent error, 100*(Cat-|An|)/(Cat+|An|)  =  -0.00
                               Iterations  =  15
                                  Total H  = 1.110199e+02
                                  Total O  = 5.554185e+01

----------------------------Distribution of species----------------------------

                                               Log       Log       Log    mole V
   Species          Molality    Activity  Molality  Activity     Gamma   cm3/mol

   H+              8.112e-07   7.431e-07    -6.091    -6.129    -0.038      0.00
   OH-             1.492e-08   1.348e-08    -7.826    -7.870    -0.044     -4.01
   H2O             5.551e+01   9.996e-01     1.744    -0.000     0.000     18.07
C(-4)         1.124e-03
   CH4             1.124e-03   1.126e-03    -2.949    -2.948     0.001     32.22
C(4)          1.731e-02
   CO2             1.034e-02   1.036e-02    -1.986    -1.985     0.001     24.74
   HCO3-           6.826e-03   6.199e-03    -2.166    -2.208    -0.042     24.67
   CaHCO3+         1.399e-04   1.270e-04    -3.854    -3.896    -0.042      9.73
   CaCO3           1.054e-06   1.056e-06    -5.977    -5.976     0.001    -14.60
   CO3-2           5.750e-07   3.913e-07    -6.240    -6.407    -0.167     -3.74
Ca            2.503e-03
   Ca+2            2.362e-03   1.606e-03    -2.627    -2.794    -0.167    -18.02
   CaHCO3+         1.399e-04   1.270e-04    -3.854    -3.896    -0.042      9.73
   CaCO3           1.054e-06   1.056e-06    -5.977    -5.976     0.001    -14.60
   CaOH+           3.961e-10   3.586e-10    -9.402    -9.445    -0.043     (0)  
H(0)          6.479e-10
   H2              3.239e-10   3.246e-10    -9.490    -9.489     0.001     28.61
N(-3)         1.964e-03
   NH4+            1.962e-03   1.768e-03    -2.707    -2.753    -0.045     15.49
   NH3             1.353e-06   1.356e-06    -5.869    -5.868     0.001     24.32
N(0)          9.878e-06
   N2              4.939e-06   4.949e-06    -5.306    -5.305     0.001     29.29
N(3)          0.000e+00
   NO2-            0.000e+00   0.000e+00   -61.942   -61.986    -0.045     25.03
N(5)          0.000e+00
   NO3-            0.000e+00   0.000e+00   -84.173   -84.218    -0.045     29.51
O(0)          0.000e+00
   O2              0.000e+00   0.000e+00   -73.404   -73.403     0.001     30.40

------------------------------Saturation indices-------------------------------

	Phase               SI   log IAP   log K(298 K,   1 atm)

	Aragonite        -0.87     -9.20   -8.34  CaCO3
	Calcite          -0.72     -9.20   -8.48  CaCO3
	CH4(g)           -0.11     -2.95   -2.84  CH4	 Pressure   0.8 atm, phi 0.998.
	CO2(g)           -0.52     -1.98   -1.47  CO2	 Pressure   0.3 atm, phi 0.994.
	H2(g)            -6.39     -9.49   -3.10  H2
	H2O(g)           -1.50     -0.00    1.50  H2O
	N2(g)            -2.13     -5.31   -3.18  N2	 Pressure   0.0 atm, phi 1.000.
	NH3(g)           -7.66     -5.87    1.80  NH3	 Pressure   0.0 atm, phi 0.992.
	O2(g)           -70.51    -73.40   -2.89  O2


Reaction step 8.

Using solution 1.	Solution after simulation 1.
Using gas phase 1.	
Using reaction 1.	

Reaction 1.	

	  6.400e-02 moles of the following reaction have been added:

	                 Relative
	Reactant            moles

	(CH2O)N0.07          1.00000

	                 Relative
	Element             moles
	C                    1.00000
	H                    2.00000
	N                    0.07000
	O                    1.00000

-----------------------------------Gas phase-----------------------------------

Total pressure:  1.10      atmospheres          (Peng-Robinson calculation)
    Gas volume:   1.07e+00 liters
  Molar volume:   2.22e+01 liters/mole
   P * Vm / RT:  0.99638  (Compressibility Factor Z) 

                                                        Moles in gas
                                            ----------------------------------
Component         log P           P    phi     Initial       Final       Delta

CH4(g)            -0.17   6.810e-01  0.998   0.000e+00   2.992e-02   2.992e-02
CO2(g)            -0.40   4.019e-01  0.994   0.000e+00   1.765e-02   1.765e-02
N2(g)             -1.77   1.709e-02  1.000   0.000e+00   7.510e-04   7.510e-04
NH3(g)            -7.55   2.839e-08  0.992   0.000e+00   1.247e-09   1.247e-09

-----------------------------Solution composition------------------------------

	Elements           Molality       Moles

	C                 2.250e-02   2.250e-02
	Ca                2.503e-03   2.503e-03
	N                 2.978e-03   2.978e-03

----------------------------Description of solution----------------------------

                                       pH  =   6.067      Charge balance
                                       pe  =  -2.875      Adjusted to redox equilibrium
       Specific Conductance (uS/cm, 25 oC) = 567
                          Density (g/cm3)  =   0.99773
                        Activity of water  =   1.000
                           Ionic strength  =   1.015e-02
                       Mass of water (kg)  =   9.999e-01
                 Total alkalinity (eq/kg)  =   7.961e-03
                       Total CO2 (mol/kg)  =   2.153e-02
                      Temperature (deg C)  =  25.00
                           Pressure (atm)  =  1.10
                  Electrical balance (eq)  =  -2.201e-10
 Percent error, 100*(Cat-|An|)/(Cat+|An|)  =  -0.00
                               Iterations  =  19
                                  Total H  = 1.110208e+02
                                  Total O  = 5.554955e+01

----------------------------Distribution of species----------------------------

                                               Log       Log       Log    mole V
   Species          Molality    Activity  Molality  Activity     Gamma   cm3/mol

   H+              9.387e-07   8.569e-07    -6.027    -6.067    -0.040      0.00
   OH-             1.300e-08   1.169e-08    -7.886    -7.932    -0.046     -4.00
   H2O             5.551e+01   9.995e-01     1.744    -0.000     0.000     18.07
C(-4)         9.730e-04
   CH4             9.730e-04   9.753e-04    -3.012    -3.011     0.001     32.22
C(4)          2.153e-02
   CO2             1.357e-02   1.360e-02    -1.867    -1.866     0.001     24.74
   HCO3-           7.801e-03   7.056e-03    -2.108    -2.151    -0.044     24.67
   CaHCO3+         1.562e-04   1.412e-04    -3.806    -3.850    -0.044      9.74
   CaCO3           1.015e-06   1.018e-06    -5.993    -5.992     0.001    -14.60
   CO3-2           5.770e-07   3.862e-07    -6.239    -6.413    -0.174     -3.72
Ca            2.503e-03
   Ca+2            2.346e-03   1.569e-03    -2.630    -2.804    -0.175    -18.00
   CaHCO3+         1.562e-04   1.412e-04    -3.806    -3.850    -0.044      9.74
   CaCO3           1.015e-06   1.018e-06    -5.993    -5.992     0.001    -14.60
   CaOH+           3.370e-10   3.037e-10    -9.472    -9.518    -0.045     (0)  
H(0)          5.837e-10
   H2              2.919e-10   2.925e-10    -9.535    -9.534     0.001     28.61
N(-3)         2.956e-03
   NH4+            2.954e-03   2.648e-03    -2.530    -2.577    -0.047     15.49
   NH3             1.757e-06   1.761e-06    -5.755    -5.754     0.001     24.32
N(0)          2.277e-05
   N2              1.138e-05   1.141e-05    -4.944    -4.943     0.001     29.29
N(3)          0.000e+00
   NO2-            0.000e+00   0.000e+00   -61.752   -61.799    -0.047     25.03
N(5)          0.000e+00
   NO3-            0.000e+00   0.000e+00   -83.939   -83.985    -0.047     29.51
O(0)          0.000e+00
   O2              0.000e+00   0.000e+00   -73.314   -73.313     0.001     30.40

------------------------------Saturation indices-------------------------------

	Phase               SI   log IAP   log K(298 K,   1 atm)

	Aragonite        -0.88     -9.22   -8.34  CaCO3
	Calcite          -0.74     -9.22   -8.48  CaCO3
	CH4(g)           -0.17     -3.01   -2.84  CH4	 Pressure   0.7 atm, phi 0.998.
	CO2(g)           -0.40     -1.87   -1.47  CO2	 Pressure   0.4 atm, phi 0.994.
	H2(g)            -6.43     -9.53   -3.10  H2
	H2O(g)           -1.50     -0.00    1.50  H2O
	N2(g)            -1.77     -4.94   -3.18  N2	 Pressure   0.0 atm, phi 1.000.
	NH3(g)           -7.55     -5.75    1.80  NH3	 Pressure   0.0 atm, phi 0.992.
	O2(g)           -70.42    -73.31   -2.89  O2


Reaction step 9.

Using solution 1.	Solution after simulation 1.
Using gas phase 1.	
Using reaction 1.	

Reaction 1.	

	  1.250e-01 moles of the following reaction have been added:

	                 Relative
	Reactant            moles

	(CH2O)N0.07          1.00000

	                 Relative
	Element             moles
	C                    1.00000
	H                    2.00000
	N                    0.07000
	O                    1.00000

-----------------------------------Gas phase-----------------------------------

Total pressure:  1.10      atmospheres          (Peng-Robinson calculation)
    Gas volume:   2.41e+00 liters
  Molar volume:   2.22e+01 liters/mole
   P * Vm / RT:  0.99621  (Compressibility Factor Z) 

                                                        Moles in gas
                                            ----------------------------------
Component         log P           P    phi     Initial       Final       Delta

CH4(g)            -0.21   6.108e-01  0.998   0.000e+00   6.029e-02   6.029e-02
CO2(g)            -0.33   4.631e-01  0.994   0.000e+00   4.571e-02   4.571e-02
N2(g)             -1.58   2.606e-02  1.000   0.000e+00   2.572e-03   2.572e-03
NH3(g)            -7.50   3.191e-08  0.992   0.000e+00   3.149e-09   3.149e-09

-----------------------------Solution composition------------------------------

	Elements           Molality       Moles

	C                 2.508e-02   2.508e-02
	Ca                2.503e-03   2.503e-03
	N                 3.606e-03   3.605e-03

----------------------------Description of solution----------------------------

                                       pH  =   6.037      Charge balance
                                       pe  =  -2.831      Adjusted to redox equilibrium
       Specific Conductance (uS/cm, 25 oC) = 590
                          Density (g/cm3)  =   0.99780
                        Activity of water  =   0.999
                           Ionic strength  =   1.074e-02
                       Mass of water (kg)  =   9.998e-01
                 Total alkalinity (eq/kg)  =   8.577e-03
                       Total CO2 (mol/kg)  =   2.421e-02
                      Temperature (deg C)  =  25.00
                           Pressure (atm)  =  1.10
                  Electrical balance (eq)  =  -2.201e-10
 Percent error, 100*(Cat-|An|)/(Cat+|An|)  =  -0.00
                               Iterations  =  29
                                  Total H  = 1.110213e+02
                                  Total O  = 5.555445e+01

----------------------------Distribution of species----------------------------

                                               Log       Log       Log    mole V
   Species          Molality    Activity  Molality  Activity     Gamma   cm3/mol

   H+              1.008e-06   9.185e-07    -5.996    -6.037    -0.040      0.00
   OH-             1.216e-08   1.091e-08    -7.915    -7.962    -0.047     -4.00
   H2O             5.551e+01   9.995e-01     1.744    -0.000     0.000     18.07
C(-4)         8.726e-04
   CH4             8.726e-04   8.748e-04    -3.059    -3.058     0.001     32.22
C(4)          2.421e-02
   CO2             1.563e-02   1.567e-02    -1.806    -1.805     0.001     24.74
   HCO3-           8.407e-03   7.585e-03    -2.075    -2.120    -0.045     24.68
   CaHCO3+         1.659e-04   1.497e-04    -3.780    -3.825    -0.045      9.74
   CaCO3           1.004e-06   1.007e-06    -5.998    -5.997     0.001    -14.60
   CO3-2           5.844e-07   3.873e-07    -6.233    -6.412    -0.179     -3.71
Ca            2.503e-03
   Ca+2            2.336e-03   1.547e-03    -2.632    -2.810    -0.179    -18.00
   CaHCO3+         1.659e-04   1.497e-04    -3.780    -3.825    -0.045      9.74
   CaCO3           1.004e-06   1.007e-06    -5.998    -5.997     0.001    -14.60
   CaOH+           3.108e-10   2.794e-10    -9.508    -9.554    -0.046     (0)  
H(0)          5.482e-10
   H2              2.741e-10   2.748e-10    -9.562    -9.561     0.001     28.61
N(-3)         3.571e-03
   NH4+            3.569e-03   3.190e-03    -2.447    -2.496    -0.049     15.49
   NH3             1.974e-06   1.979e-06    -5.705    -5.703     0.001     24.32
N(0)          3.471e-05
   N2              1.735e-05   1.740e-05    -4.761    -4.760     0.001     29.29
N(3)          0.000e+00
   NO2-            0.000e+00   0.000e+00   -61.649   -61.697    -0.048     25.03
N(5)          0.000e+00
   NO3-            0.000e+00   0.000e+00   -83.808   -83.856    -0.048     29.52
O(0)          0.000e+00
   O2              0.000e+00   0.000e+00   -73.260   -73.258     0.001     30.40

------------------------------Saturation indices-------------------------------

	Phase               SI   log IAP   log K(298 K,   1 atm)

	Aragonite        -0.89     -9.22   -8.34  CaCO3
	Calcite          -0.74     -9.22   -8.48  CaCO3
	CH4(g)           -0.22     -3.06   -2.84  CH4	 Pressure   0.6 atm, phi 0.998.
	CO2(g)           -0.34     -1.80   -1.47  CO2	 Pressure   0.5 atm, phi 0.994.
	H2(g)            -6.46     -9.56   -3.10  H2
	H2O(g)           -1.50     -0.00    1.50  H2O
	N2(g)            -1.58     -4.76   -3.18  N2	 Pressure   0.0 atm, phi 1.000.
	NH3(g)           -7.50     -5.70    1.80  NH3	 Pressure   0.0 atm, phi 0.992.
	O2(g)           -70.37    -73.26   -2.89  O2


Reaction step 10.

Using solution 1.	Solution after simulation 1.
Using gas phase 1.	
Using reaction 1.	

Reaction 1.	

	  2.500e-01 moles of the following reaction have been added:

	                 Relative
	Reactant            moles

	(CH2O)N0.07          1.00000

	                 Relative
	Element             moles
	C                    1.00000
	H                    2.00000
	N                    0.07000
	O                    1.00000

-----------------------------------Gas phase-----------------------------------

Total pressure:  1.10      atmospheres          (Peng-Robinson calculation)
    Gas volume:   5.24e+00 liters
  Molar volume:   2.22e+01 liters/mole
   P * Vm / RT:  0.99611  (Compressibility Factor Z) 

                                                        Moles in gas
                                            ----------------------------------
Component         log P           P    phi     Initial       Final       Delta

CH4(g)            -0.24   5.711e-01  0.998   0.000e+00   1.227e-01   1.227e-01
CO2(g)            -0.30   4.973e-01  0.994   0.000e+00   1.069e-01   1.069e-01
N2(g)             -1.50   3.160e-02  1.001   0.000e+00   6.790e-03   6.790e-03
NH3(g)            -7.48   3.336e-08  0.992   0.000e+00   7.169e-09   7.169e-09

-----------------------------Solution composition------------------------------

	Elements           Molality       Moles

	C                 2.648e-02   2.648e-02
	Ca                2.503e-03   2.503e-03
	N                 3.921e-03   3.921e-03

----------------------------Description of solution----------------------------

                                       pH  =   6.021      Charge balance
                                       pe  =  -2.808      Adjusted to redox equilibrium
       Specific Conductance (uS/cm, 25 oC) = 601
                          Density (g/cm3)  =   0.99783
                        Activity of water  =   0.999
                           Ionic strength  =   1.104e-02
                       Mass of water (kg)  =   9.998e-01
                 Total alkalinity (eq/kg)  =   8.885e-03
                       Total CO2 (mol/kg)  =   2.567e-02
                      Temperature (deg C)  =  25.00
                           Pressure (atm)  =  1.10
                  Electrical balance (eq)  =  -2.201e-10
 Percent error, 100*(Cat-|An|)/(Cat+|An|)  =  -0.00
                               Iterations  =  30
                                  Total H  = 1.110215e+02
                                  Total O  = 5.555714e+01

----------------------------Distribution of species----------------------------

                                               Log       Log       Log    mole V
   Species          Molality    Activity  Molality  Activity     Gamma   cm3/mol

   H+              1.047e-06   9.531e-07    -5.980    -6.021    -0.041      0.00
   OH-             1.173e-08   1.051e-08    -7.931    -7.978    -0.048     -3.99
   H2O             5.551e+01   9.994e-01     1.744    -0.000     0.000     18.07
C(-4)         8.158e-04
   CH4             8.158e-04   8.179e-04    -3.088    -3.087     0.001     32.22
C(4)          2.567e-02
   CO2             1.679e-02   1.683e-02    -1.775    -1.774     0.001     24.74
   HCO3-           8.710e-03   7.850e-03    -2.060    -2.105    -0.045     24.68
   CaHCO3+         1.708e-04   1.539e-04    -3.768    -3.813    -0.045      9.74
   CaCO3           9.946e-07   9.971e-07    -6.002    -6.001     0.001    -14.60
   CO3-2           5.856e-07   3.863e-07    -6.232    -6.413    -0.181     -3.71
Ca            2.503e-03
   Ca+2            2.331e-03   1.537e-03    -2.632    -2.813    -0.181    -17.99
   CaHCO3+         1.708e-04   1.539e-04    -3.768    -3.813    -0.045      9.74
   CaCO3           9.946e-07   9.971e-07    -6.002    -6.001     0.001    -14.60
   CaOH+           2.979e-10   2.674e-10    -9.526    -9.573    -0.047     (0)  
H(0)          5.295e-10
   H2              2.647e-10   2.654e-10    -9.577    -9.576     0.001     28.61
N(-3)         3.879e-03
   NH4+            3.877e-03   3.461e-03    -2.412    -2.461    -0.049     15.49
   NH3             2.064e-06   2.069e-06    -5.685    -5.684     0.001     24.32
N(0)          4.207e-05
   N2              2.104e-05   2.109e-05    -4.677    -4.676     0.001     29.29
N(3)          0.000e+00
   NO2-            0.000e+00   0.000e+00   -61.600   -61.649    -0.049     25.03
N(5)          0.000e+00
   NO3-            0.000e+00   0.000e+00   -83.744   -83.793    -0.049     29.52
O(0)          0.000e+00
   O2              0.000e+00   0.000e+00   -73.230   -73.228     0.001     30.40

------------------------------Saturation indices-------------------------------

	Phase               SI   log IAP   log K(298 K,   1 atm)

	Aragonite        -0.89     -9.23   -8.34  CaCO3
	Calcite          -0.75     -9.23   -8.48  CaCO3
	CH4(g)           -0.24     -3.09   -2.84  CH4	 Pressure   0.6 atm, phi 0.998.
	CO2(g)           -0.31     -1.77   -1.47  CO2	 Pressure   0.5 atm, phi 0.994.
	H2(g)            -6.47     -9.58   -3.10  H2
	H2O(g)           -1.50     -0.00    1.50  H2O
	N2(g)            -1.50     -4.68   -3.18  N2	 Pressure   0.0 atm, phi 1.001.
	NH3(g)           -7.48     -5.68    1.80  NH3	 Pressure   0.0 atm, phi 0.992.
	O2(g)           -70.34    -73.23   -2.89  O2


Reaction step 11.

Using solution 1.	Solution after simulation 1.
Using gas phase 1.	
Using reaction 1.	

Reaction 1.	

	  5.000e-01 moles of the following reaction have been added:

	                 Relative
	Reactant            moles

	(CH2O)N0.07          1.00000

	                 Relative
	Element             moles
	C                    1.00000
	H                    2.00000
	N                    0.07000
	O                    1.00000

-----------------------------------Gas phase-----------------------------------

Total pressure:  1.10      atmospheres          (Peng-Robinson calculation)
    Gas volume:   1.10e+01 liters
  Molar volume:   2.22e+01 liters/mole
   P * Vm / RT:  0.99607  (Compressibility Factor Z) 

                                                        Moles in gas
                                            ----------------------------------
Component         log P           P    phi     Initial       Final       Delta

CH4(g)            -0.26   5.512e-01  0.998   0.000e+00   2.477e-01   2.477e-01
CO2(g)            -0.29   5.144e-01  0.994   0.000e+00   2.312e-01   2.312e-01
N2(g)             -1.46   3.442e-02  1.001   0.000e+00   1.547e-02   1.547e-02
NH3(g)            -7.47   3.392e-08  0.992   0.000e+00   1.524e-08   1.524e-08

-----------------------------Solution composition------------------------------

	Elements           Molality       Moles

	C                 2.718e-02   2.717e-02
	Ca                2.503e-03   2.503e-03
	N                 4.067e-03   4.066e-03

----------------------------Description of solution----------------------------

                                       pH  =   6.013      Charge balance
                                       pe  =  -2.796      Adjusted to redox equilibrium
       Specific Conductance (uS/cm, 25 oC) = 607
                          Density (g/cm3)  =   0.99785
                        Activity of water  =   0.999
                           Ionic strength  =   1.118e-02
                       Mass of water (kg)  =   9.998e-01
                 Total alkalinity (eq/kg)  =   9.027e-03
                       Total CO2 (mol/kg)  =   2.639e-02
                      Temperature (deg C)  =  25.00
                           Pressure (atm)  =  1.10
                  Electrical balance (eq)  =  -2.201e-10
 Percent error, 100*(Cat-|An|)/(Cat+|An|)  =  -0.00
                               Iterations  =  22
                                  Total H  = 1.110216e+02
                                  Total O  = 5.555847e+01

----------------------------Distribution of species----------------------------

                                               Log       Log       Log    mole V
   Species          Molality    Activity  Molality  Activity     Gamma   cm3/mol

   H+              1.067e-06   9.709e-07    -5.972    -6.013    -0.041      0.00
   OH-             1.153e-08   1.032e-08    -7.938    -7.986    -0.048     -3.99
   H2O             5.551e+01   9.994e-01     1.744    -0.000     0.000     18.07
C(-4)         7.873e-04
   CH4             7.873e-04   7.893e-04    -3.104    -3.103     0.001     32.22
C(4)          2.639e-02
   CO2             1.736e-02   1.741e-02    -1.760    -1.759     0.001     24.74
   HCO3-           8.849e-03   7.971e-03    -2.053    -2.098    -0.045     24.68
   CaHCO3+         1.730e-04   1.558e-04    -3.762    -3.807    -0.045      9.74
   CaCO3           9.883e-07   9.908e-07    -6.005    -6.004     0.001    -14.60
   CO3-2           5.850e-07   3.850e-07    -6.233    -6.414    -0.182     -3.71
Ca            2.503e-03
   Ca+2            2.329e-03   1.532e-03    -2.633    -2.815    -0.182    -17.99
   CaHCO3+         1.730e-04   1.558e-04    -3.762    -3.807    -0.045      9.74
   CaCO3           9.883e-07   9.908e-07    -6.005    -6.004     0.001    -14.60
   CaOH+           2.916e-10   2.617e-10    -9.535    -9.582    -0.047     (0)  
H(0)          5.204e-10
   H2              2.602e-10   2.609e-10    -9.585    -9.584     0.001     28.61
N(-3)         4.021e-03
   NH4+            4.019e-03   3.585e-03    -2.396    -2.446    -0.050     15.49
   NH3             2.099e-06   2.104e-06    -5.678    -5.677     0.001     24.32
N(0)          4.583e-05
   N2              2.291e-05   2.297e-05    -4.640    -4.639     0.001     29.29
N(3)          0.000e+00
   NO2-            0.000e+00   0.000e+00   -61.578   -61.627    -0.049     25.03
N(5)          0.000e+00
   NO3-            0.000e+00   0.000e+00   -83.715   -83.763    -0.049     29.52
O(0)          0.000e+00
   O2              0.000e+00   0.000e+00   -73.214   -73.213     0.001     30.40

------------------------------Saturation indices-------------------------------

	Phase               SI   log IAP   log K(298 K,   1 atm)

	Aragonite        -0.89     -9.23   -8.34  CaCO3
	Calcite          -0.75     -9.23   -8.48  CaCO3
	CH4(g)           -0.26     -3.10   -2.84  CH4	 Pressure   0.6 atm, phi 0.998.
	CO2(g)           -0.29     -1.76   -1.47  CO2	 Pressure   0.5 atm, phi 0.994.
	H2(g)            -6.48     -9.58   -3.10  H2
	H2O(g)           -1.50     -0.00    1.50  H2O
	N2(g)            -1.46     -4.64   -3.18  N2	 Pressure   0.0 atm, phi 1.001.
	NH3(g)           -7.47     -5.68    1.80  NH3	 Pressure   0.0 atm, phi 0.992.
	O2(g)           -70.32    -73.21   -2.89  O2


Reaction step 12.

Using solution 1.	Solution after simulation 1.
Using gas phase 1.	
Using reaction 1.	

Reaction 1.	

	  1.000e+00 moles of the following reaction have been added:

	                 Relative
	Reactant            moles

	(CH2O)N0.07          1.00000

	                 Relative
	Element             moles
	C                    1.00000
	H                    2.00000
	N                    0.07000
	O                    1.00000

-----------------------------------Gas phase-----------------------------------

Total pressure:  1.10      atmospheres          (Peng-Robinson calculation)
    Gas volume:   2.24e+01 liters
  Molar volume:   2.22e+01 liters/mole
   P * Vm / RT:  0.99604  (Compressibility Factor Z) 

                                                        Moles in gas
                                            ----------------------------------
Component         log P           P    phi     Initial       Final       Delta

CH4(g)            -0.27   5.412e-01  0.998   0.000e+00   4.977e-01   4.977e-01
CO2(g)            -0.28   5.229e-01  0.994   0.000e+00   4.809e-01   4.809e-01
N2(g)             -1.45   3.581e-02  1.001   0.000e+00   3.293e-02   3.293e-02
NH3(g)            -7.47   3.416e-08  0.992   0.000e+00   3.141e-08   3.141e-08

-----------------------------Solution composition------------------------------

	Elements           Molality       Moles

	C                 2.752e-02   2.751e-02
	Ca                2.503e-03   2.503e-03
	N                 4.135e-03   4.135e-03

----------------------------Description of solution----------------------------

                                       pH  =   6.009      Charge balance
                                       pe  =  -2.790      Adjusted to redox equilibrium
       Specific Conductance (uS/cm, 25 oC) = 609
                          Density (g/cm3)  =   0.99786
                        Activity of water  =   0.999
                           Ionic strength  =   1.125e-02
                       Mass of water (kg)  =   9.998e-01
                 Total alkalinity (eq/kg)  =   9.093e-03
                       Total CO2 (mol/kg)  =   2.674e-02
                      Temperature (deg C)  =  25.00
                           Pressure (atm)  =  1.10
                  Electrical balance (eq)  =  -2.201e-10
 Percent error, 100*(Cat-|An|)/(Cat+|An|)  =  -0.00
                               Iterations  =  41
                                  Total H  = 1.110217e+02
                                  Total O  = 5.555913e+01

----------------------------Distribution of species----------------------------

                                               Log       Log       Log    mole V
   Species          Molality    Activity  Molality  Activity     Gamma   cm3/mol

   H+              1.077e-06   9.799e-07    -5.968    -6.009    -0.041      0.00
   OH-             1.142e-08   1.022e-08    -7.942    -7.990    -0.048     -3.99
   H2O             5.551e+01   9.994e-01     1.744    -0.000     0.000     18.07
C(-4)         7.731e-04
   CH4             7.731e-04   7.751e-04    -3.112    -3.111     0.001     32.22
C(4)          2.674e-02
   CO2             1.765e-02   1.770e-02    -1.753    -1.752     0.001     24.74
   HCO3-           8.915e-03   8.028e-03    -2.050    -2.095    -0.046     24.68
   CaHCO3+         1.740e-04   1.567e-04    -3.759    -3.805    -0.046      9.74
   CaCO3           9.848e-07   9.873e-07    -6.007    -6.006     0.001    -14.60
   CO3-2           5.844e-07   3.842e-07    -6.233    -6.415    -0.182     -3.70
Ca            2.503e-03
   Ca+2            2.328e-03   1.530e-03    -2.633    -2.815    -0.182    -17.99
   CaHCO3+         1.740e-04   1.567e-04    -3.759    -3.805    -0.046      9.74
   CaCO3           9.848e-07   9.873e-07    -6.007    -6.006     0.001    -14.60
   CaOH+           2.886e-10   2.589e-10    -9.540    -9.587    -0.047     (0)  
H(0)          5.159e-10
   H2              2.579e-10   2.586e-10    -9.588    -9.587     0.001     28.61
N(-3)         4.088e-03
   NH4+            4.086e-03   3.643e-03    -2.389    -2.439    -0.050     15.49
   NH3             2.113e-06   2.119e-06    -5.675    -5.674     0.001     24.32
N(0)          4.769e-05
   N2              2.384e-05   2.391e-05    -4.623    -4.621     0.001     29.29
N(3)          0.000e+00
   NO2-            0.000e+00   0.000e+00   -61.567   -61.616    -0.049     25.04
N(5)          0.000e+00
   NO3-            0.000e+00   0.000e+00   -83.700   -83.749    -0.049     29.52
O(0)          0.000e+00
   O2              0.000e+00   0.000e+00   -73.207   -73.206     0.001     30.40

------------------------------Saturation indices-------------------------------

	Phase               SI   log IAP   log K(298 K,   1 atm)

	Aragonite        -0.89     -9.23   -8.34  CaCO3
	Calcite          -0.75     -9.23   -8.48  CaCO3
	CH4(g)           -0.27     -3.11   -2.84  CH4	 Pressure   0.5 atm, phi 0.998.
	CO2(g)           -0.28     -1.75   -1.47  CO2	 Pressure   0.5 atm, phi 0.994.
	H2(g)            -6.49     -9.59   -3.10  H2
	H2O(g)           -1.50     -0.00    1.50  H2O
	N2(g)            -1.45     -4.62   -3.18  N2	 Pressure   0.0 atm, phi 1.001.
	NH3(g)           -7.47     -5.67    1.80  NH3	 Pressure   0.0 atm, phi 0.992.
	O2(g)           -70.31    -73.21   -2.89  O2


------------------
End of simulation.
------------------

------------------------------------
Reading input data for simulation 3.
------------------------------------

-----------
End of run.
-----------

