WARNING: Database file from DATABASE keyword is used; command line argument ignored.
   Input file: ex7
  Output file: ex7.out
Database file: ../database/phreeqc.dat

------------------
Reading data base.
------------------

	SOLUTION_MASTER_SPECIES
	SOLUTION_SPECIES
	PHASES
	EXCHANGE_MASTER_SPECIES
	EXCHANGE_SPECIES
	SURFACE_MASTER_SPECIES
	SURFACE_SPECIES
	CALCULATE_VALUES
	RATES
	END
------------------------------------
Reading input data for simulation 1.
------------------------------------

	DATABASE ../database/phreeqc.dat
	SELECTED_OUTPUT 101
	    file                 ex7_101.sel
	USER_PUNCH 101
	    headings Mu SC
	    start
	10 PUNCH STR_F$(MU, 20, 12)
	20 PUNCH STR_F$(SC, 20, 10)
	    end
	knobs
		logfile
	TITLE Example 7.--Organic decomposition and bubble formation
	SOLUTION 1
	EQUILIBRIUM_PHASES 1
	        Calcite
	        CO2(g)  -1.5
	SAVE solution 1
	SELECTED_OUTPUT
	        file ex7.pun
	        si CO2(g) CH4(g) N2(g) NH3(g)
	        gases CO2(g) CH4(g) N2(g) NH3(g)
	END
-----
TITLE
-----

 Example 7.--Organic decomposition and bubble formation

-------------------------------------------
Beginning of initial solution calculations.
-------------------------------------------

Initial solution 1.	

-----------------------------Solution composition------------------------------

	Elements           Molality       Moles

	Pure water     

----------------------------Description of solution----------------------------

                                       pH  =   7.000    
                                       pe  =   4.000    
      Specific Conductance (µS/cm,  25°C)  = 0
                          Density (g/cm³)  =   0.99704
                               Volume (L)  =   1.00297
                        Viscosity (mPa s)  =   0.89002
                        Activity of water  =   1.000
                 Ionic strength (mol/kgw)  =   1.007e-07
                       Mass of water (kg)  =   1.000e+00
                 Total alkalinity (eq/kg)  =   1.217e-09
                         Temperature (°C)  =  25.00
                  Electrical balance (eq)  =  -1.217e-09
 Percent error, 100*(Cat-|An|)/(Cat+|An|)  =  -0.60
                               Iterations  =   0
                                  Total H  = 1.110124e+02
                                  Total O  = 5.550622e+01

----------------------------Distribution of species----------------------------

                                               Log       Log       Log    mole V
   Species          Molality    Activity  Molality  Activity     Gamma   cm³/mol

   OH-             1.013e-07   1.012e-07    -6.995    -6.995    -0.000     -4.14
   H+              1.001e-07   1.000e-07    -7.000    -7.000    -0.000      0.00
   H2O             5.551e+01   1.000e+00     1.744     0.000     0.000     18.07
H(0)          1.416e-25
   H2              7.079e-26   7.079e-26   -25.150   -25.150     0.000     28.61
O(0)          0.000e+00
   O2              0.000e+00   0.000e+00   -42.080   -42.080     0.000     30.40

------------------------------Saturation indices-------------------------------

  Phase               SI** log IAP   log K(298 K,   1 atm)

  H2(g)           -22.05    -25.15   -3.10  H2
  H2O(g)           -1.50      0.00    1.50  H2O
  O2(g)           -39.19    -42.08   -2.89  O2

**For a gas, SI = log10(fugacity). Fugacity = pressure * phi / 1 atm.
  For ideal gases, phi = 1.

-----------------------------------------
Beginning of batch-reaction calculations.
-----------------------------------------

Reaction step 1.

Using solution 1.	
Using pure phase assemblage 1.	

-------------------------------Phase assemblage--------------------------------

                                                      Moles in assemblage
Phase               SI  log IAP  log K(T, P)   Initial       Final       Delta

CO2(g)           -1.50    -2.97     -1.47    1.000e+01   9.996e+00  -3.568e-03
Calcite           0.00    -8.48     -8.48    1.000e+01   9.997e+00  -2.502e-03

-----------------------------Solution composition------------------------------

	Elements           Molality       Moles

	C                 6.070e-03   6.070e-03
	Ca                2.502e-03   2.502e-03

----------------------------Description of solution----------------------------

                                       pH  =   6.971      Charge balance
                                       pe  =  -1.249      Adjusted to redox equilibrium
      Specific Conductance (µS/cm,  25°C)  = 458
                          Density (g/cm³)  =   0.99738
                               Volume (L)  =   1.00304
                        Viscosity (mPa s)  =   0.89302
                        Activity of water  =   1.000
                 Ionic strength (mol/kgw)  =   7.282e-03
                       Mass of water (kg)  =   1.000e+00
                 Total alkalinity (eq/kg)  =   5.004e-03
                       Total CO2 (mol/kg)  =   6.070e-03
                         Temperature (°C)  =  25.00
                  Electrical balance (eq)  =  -1.216e-09
 Percent error, 100*(Cat-|An|)/(Cat+|An|)  =  -0.00
                               Iterations  =  17
                                  Total H  = 1.110124e+02
                                  Total O  = 5.552086e+01

----------------------------Distribution of species----------------------------

                                               Log       Log       Log    mole V
   Species          Molality    Activity  Molality  Activity     Gamma   cm³/mol

   H+              1.158e-07   1.069e-07    -6.936    -6.971    -0.035      0.00
   OH-             1.037e-07   9.466e-08    -6.984    -7.024    -0.040     -4.05
   H2O             5.551e+01   9.999e-01     1.744    -0.000     0.000     18.07
C(-4)         4.416e-25
   CH4             4.416e-25   4.424e-25   -24.355   -24.354     0.001     35.46
C(4)          6.070e-03
   HCO3-           4.882e-03   4.475e-03    -2.311    -2.349    -0.038     24.63
   CO2             1.075e-03   1.076e-03    -2.969    -2.968     0.000     34.43
   CaHCO3+         1.050e-04   9.632e-05    -3.979    -4.016    -0.037      9.71
   CaCO3           5.554e-06   5.563e-06    -5.255    -5.255     0.001    -14.60
   CO3-2           2.780e-06   1.963e-06    -5.556    -5.707    -0.151     -3.73
   (CO2)2          2.121e-08   2.125e-08    -7.673    -7.673     0.001     68.87
Ca            2.502e-03
   Ca+2            2.391e-03   1.687e-03    -2.621    -2.773    -0.151    -17.97
   CaHCO3+         1.050e-04   9.632e-05    -3.979    -4.016    -0.037      9.71
   CaCO3           5.554e-06   5.563e-06    -5.255    -5.255     0.001    -14.60
   CaOH+           2.864e-09   2.618e-09    -8.543    -8.582    -0.039     (0)  
H(0)          5.084e-15
   H2              2.542e-15   2.546e-15   -14.595   -14.594     0.001     28.61
O(0)          0.000e+00
   O2              0.000e+00   0.000e+00   -63.193   -63.192     0.001     30.40

------------------------------Saturation indices-------------------------------

  Phase               SI** log IAP   log K(298 K,   1 atm)

  Aragonite        -0.14     -8.48   -8.34  CaCO3
  Calcite           0.00     -8.48   -8.48  CaCO3
  CH4(g)          -21.55    -24.35   -2.80  CH4
  CO2(g)           -1.50     -2.97   -1.47  CO2	 Pressure   0.0 atm, phi 1.000
  H2(g)           -11.49    -14.59   -3.10  H2
  H2O(g)           -1.50     -0.00    1.50  H2O
  O2(g)           -60.30    -63.19   -2.89  O2

**For a gas, SI = log10(fugacity). Fugacity = pressure * phi / 1 atm.
  For ideal gases, phi = 1.

------------------
End of simulation.
------------------

------------------------------------
Reading input data for simulation 2.
------------------------------------

	USE solution 1
	GAS_PHASE 1
	        pressure       1.1
	        CO2(g)          0.0
	        CH4(g)          0.0
	        N2(g)           0.0
	        NH3(g)          0.0
	REACTION 1
	        (CH2O)N0.07     1.0
	        1. 2. 3. 4. 8. 16. 32 64. 125. 250. 500. 1000. mmol
	END
-----------------------------------------
Beginning of batch-reaction calculations.
-----------------------------------------

Reaction step 1.

Using solution 1.	Solution after simulation 1.
Using gas phase 1.	
Using reaction 1.	

Reaction 1.	

	  1.000e-03 moles of the following reaction have been added:

	                 Relative
	Reactant            moles

	(CH2O)N0.07          1.00000

	                 Relative
	Element             moles
	C                    1.00000
	H                    2.00000
	N                    0.07000
	O                    1.00000

----------------Fixed-pressure gas phase 1 dissolved completely----------------

-----------------------------Solution composition------------------------------

	Elements           Molality       Moles

	C                 7.070e-03   7.070e-03
	Ca                2.502e-03   2.502e-03
	N                 7.000e-05   7.000e-05

----------------------------Description of solution----------------------------

                                       pH  =   6.824      Charge balance
                                       pe  =  -3.712      Adjusted to redox equilibrium
      Specific Conductance (µS/cm,  25°C)  = 465
                          Density (g/cm³)  =   0.99738
                               Volume (L)  =   1.00306
                        Viscosity (mPa s)  =   0.89303
                        Activity of water  =   1.000
                 Ionic strength (mol/kgw)  =   7.352e-03
                       Mass of water (kg)  =   1.000e+00
                 Total alkalinity (eq/kg)  =   5.073e-03
                       Total CO2 (mol/kg)  =   6.596e-03
                         Temperature (°C)  =  25.00
                           Pressure (atm)  =  1.10
                  Electrical balance (eq)  =  -1.216e-09
 Percent error, 100*(Cat-|An|)/(Cat+|An|)  =  -0.00
                               Iterations  =  10
                                  Total H  = 1.110144e+02
                                  Total O  = 5.552186e+01

----------------------------Distribution of species----------------------------

                                               Log       Log       Log    mole V
   Species          Molality    Activity  Molality  Activity     Gamma   cm³/mol

   H+              1.625e-07   1.499e-07    -6.789    -6.824    -0.035      0.00
   OH-             7.398e-08   6.750e-08    -7.131    -7.171    -0.040     -4.05
   H2O             5.551e+01   9.998e-01     1.744    -0.000     0.000     18.07
C(-4)         4.738e-04
   CH4             4.738e-04   4.746e-04    -3.324    -3.324     0.001     35.46
C(4)          6.596e-03
   HCO3-           4.955e-03   4.540e-03    -2.305    -2.343    -0.038     24.63
   CO2             1.529e-03   1.531e-03    -2.816    -2.815     0.000     34.43
   CaHCO3+         1.064e-04   9.759e-05    -3.973    -4.011    -0.037      9.71
   CaCO3           4.013e-06   4.019e-06    -5.397    -5.396     0.001    -14.60
   CO3-2           2.015e-06   1.420e-06    -5.696    -5.848    -0.152     -3.72
   (CO2)2          4.293e-08   4.300e-08    -7.367    -7.367     0.001     68.87
Ca            2.502e-03
   Ca+2            2.391e-03   1.685e-03    -2.621    -2.773    -0.152    -17.97
   CaHCO3+         1.064e-04   9.759e-05    -3.973    -4.011    -0.037      9.71
   CaCO3           4.013e-06   4.019e-06    -5.397    -5.396     0.001    -14.60
   CaOH+           2.040e-09   1.865e-09    -8.690    -8.729    -0.039     (0)  
H(0)          8.424e-10
   H2              4.212e-10   4.219e-10    -9.375    -9.375     0.001     28.61
N(-3)         6.986e-05
   NH4+            6.962e-05   6.337e-05    -4.157    -4.198    -0.041     17.95
   NH3             2.404e-07   2.409e-07    -6.619    -6.618     0.001     24.42
N(0)          1.420e-07
   N2              7.102e-08   7.114e-08    -7.149    -7.148     0.001     29.29
N(3)          0.000e+00
   NO2-            0.000e+00   0.000e+00   -62.343   -62.383    -0.040     25.02
N(5)          0.000e+00
   NO3-            0.000e+00   0.000e+00   -84.688   -84.728    -0.040     29.54
O(0)          0.000e+00
   O2              0.000e+00   0.000e+00   -73.631   -73.631     0.001     30.40

------------------------------Saturation indices-------------------------------

  Phase               SI** log IAP   log K(298 K,   1 atm)

  Aragonite        -0.29     -8.62   -8.34  CaCO3
  Calcite          -0.14     -8.62   -8.48  CaCO3
  CH4(g)           -0.52     -3.32   -2.80  CH4
  CO2(g)           -1.35     -2.82   -1.47  CO2
  H2(g)            -6.27     -9.37   -3.10  H2
  H2O(g)           -1.50     -0.00    1.50  H2O
  N2(g)            -3.97     -7.15   -3.18  N2
  NH3(g)           -8.41     -6.62    1.80  NH3
  O2(g)           -70.74    -73.63   -2.89  O2

**For a gas, SI = log10(fugacity). Fugacity = pressure * phi / 1 atm.
  For ideal gases, phi = 1.

Reaction step 2.

Using solution 1.	Solution after simulation 1.
Using gas phase 1.	
Using reaction 1.	

Reaction 1.	

	  2.000e-03 moles of the following reaction have been added:

	                 Relative
	Reactant            moles

	(CH2O)N0.07          1.00000

	                 Relative
	Element             moles
	C                    1.00000
	H                    2.00000
	N                    0.07000
	O                    1.00000

----------------Fixed-pressure gas phase 1 dissolved completely----------------

-----------------------------Solution composition------------------------------

	Elements           Molality       Moles

	C                 8.070e-03   8.070e-03
	Ca                2.502e-03   2.502e-03
	N                 1.400e-04   1.400e-04

----------------------------Description of solution----------------------------

                                       pH  =   6.717      Charge balance
                                       pe  =  -3.628      Adjusted to redox equilibrium
      Specific Conductance (µS/cm,  25°C)  = 472
                          Density (g/cm³)  =   0.99738
                               Volume (L)  =   1.00310
                        Viscosity (mPa s)  =   0.89304
                        Activity of water  =   1.000
                 Ionic strength (mol/kgw)  =   7.422e-03
                       Mass of water (kg)  =   1.000e+00
                 Total alkalinity (eq/kg)  =   5.143e-03
                       Total CO2 (mol/kg)  =   7.122e-03
                         Temperature (°C)  =  25.00
                           Pressure (atm)  =  1.10
                  Electrical balance (eq)  =  -1.216e-09
 Percent error, 100*(Cat-|An|)/(Cat+|An|)  =  -0.00
                               Iterations  =  18
                                  Total H  = 1.110164e+02
                                  Total O  = 5.552286e+01

----------------------------Distribution of species----------------------------

                                               Log       Log       Log    mole V
   Species          Molality    Activity  Molality  Activity     Gamma   cm³/mol

   H+              2.080e-07   1.919e-07    -6.682    -6.717    -0.035      0.00
   OH-             5.783e-08   5.274e-08    -7.238    -7.278    -0.040     -4.05
   H2O             5.551e+01   9.998e-01     1.744    -0.000     0.000     18.07
C(-4)         9.476e-04
   CH4             9.476e-04   9.493e-04    -3.023    -3.023     0.001     35.46
C(4)          7.122e-03
   HCO3-           5.026e-03   4.604e-03    -2.299    -2.337    -0.038     24.63
   CO2             1.984e-03   1.986e-03    -2.702    -2.702     0.000     34.43
   CaHCO3+         1.077e-04   9.879e-05    -3.968    -4.005    -0.038      9.71
   CaCO3           3.174e-06   3.179e-06    -5.498    -5.498     0.001    -14.60
   CO3-2           1.598e-06   1.125e-06    -5.796    -5.949    -0.152     -3.72
   (CO2)2          7.229e-08   7.241e-08    -7.141    -7.140     0.001     68.87
Ca            2.502e-03
   Ca+2            2.391e-03   1.682e-03    -2.621    -2.774    -0.153    -17.97
   CaHCO3+         1.077e-04   9.879e-05    -3.968    -4.005    -0.038      9.71
   CaCO3           3.174e-06   3.179e-06    -5.498    -5.498     0.001    -14.60
   CaOH+           1.592e-09   1.454e-09    -8.798    -8.837    -0.039     (0)  
H(0)          9.386e-10
   H2              4.693e-10   4.701e-10    -9.329    -9.328     0.001     28.61
N(-3)         1.398e-04
   NH4+            1.394e-04   1.268e-04    -3.856    -3.897    -0.041     17.95
   NH3             3.760e-07   3.766e-07    -6.425    -6.424     0.001     24.42
N(0)          2.511e-07
   N2              1.255e-07   1.258e-07    -6.901    -6.900     0.001     29.29
N(3)          0.000e+00
   NO2-            0.000e+00   0.000e+00   -62.396   -62.437    -0.040     25.02
N(5)          0.000e+00
   NO3-            0.000e+00   0.000e+00   -84.789   -84.829    -0.040     29.54
O(0)          0.000e+00
   O2              0.000e+00   0.000e+00   -73.725   -73.725     0.001     30.40

------------------------------Saturation indices-------------------------------

  Phase               SI** log IAP   log K(298 K,   1 atm)

  Aragonite        -0.39     -8.72   -8.34  CaCO3
  Calcite          -0.24     -8.72   -8.48  CaCO3
  CH4(g)           -0.22     -3.02   -2.80  CH4
  CO2(g)           -1.23     -2.70   -1.47  CO2
  H2(g)            -6.23     -9.33   -3.10  H2
  H2O(g)           -1.50     -0.00    1.50  H2O
  N2(g)            -3.72     -6.90   -3.18  N2
  NH3(g)           -8.22     -6.42    1.80  NH3
  O2(g)           -70.83    -73.72   -2.89  O2

**For a gas, SI = log10(fugacity). Fugacity = pressure * phi / 1 atm.
  For ideal gases, phi = 1.

Reaction step 3.

Using solution 1.	Solution after simulation 1.
Using gas phase 1.	
Using reaction 1.	

Reaction 1.	

	  3.000e-03 moles of the following reaction have been added:

	                 Relative
	Reactant            moles

	(CH2O)N0.07          1.00000

	                 Relative
	Element             moles
	C                    1.00000
	H                    2.00000
	N                    0.07000
	O                    1.00000

----------------Fixed-pressure gas phase 1 dissolved completely----------------

-----------------------------Solution composition------------------------------

	Elements           Molality       Moles

	C                 9.070e-03   9.070e-03
	Ca                2.502e-03   2.502e-03
	N                 2.100e-04   2.100e-04

----------------------------Description of solution----------------------------

                                       pH  =   6.633      Charge balance
                                       pe  =  -3.555      Adjusted to redox equilibrium
      Specific Conductance (µS/cm,  25°C)  = 479
                          Density (g/cm³)  =   0.99738
                               Volume (L)  =   1.00313
                        Viscosity (mPa s)  =   0.89305
                        Activity of water  =   1.000
                 Ionic strength (mol/kgw)  =   7.490e-03
                       Mass of water (kg)  =   9.999e-01
                 Total alkalinity (eq/kg)  =   5.213e-03
                       Total CO2 (mol/kg)  =   7.649e-03
                         Temperature (°C)  =  25.00
                           Pressure (atm)  =  1.10
                  Electrical balance (eq)  =  -1.216e-09
 Percent error, 100*(Cat-|An|)/(Cat+|An|)  =  -0.00
                               Iterations  =  12
                                  Total H  = 1.110184e+02
                                  Total O  = 5.552386e+01

----------------------------Distribution of species----------------------------

                                               Log       Log       Log    mole V
   Species          Molality    Activity  Molality  Activity     Gamma   cm³/mol

   H+              2.524e-07   2.328e-07    -6.598    -6.633    -0.035      0.00
   OH-             4.769e-08   4.348e-08    -7.322    -7.362    -0.040     -4.05
   H2O             5.551e+01   9.998e-01     1.744    -0.000     0.000     18.07
C(-4)         1.421e-03
   CH4             1.421e-03   1.424e-03    -2.847    -2.847     0.001     35.46
C(4)          7.649e-03
   HCO3-           5.096e-03   4.666e-03    -2.293    -2.331    -0.038     24.63
   CO2             2.439e-03   2.442e-03    -2.613    -2.612     0.000     34.43
   CaHCO3+         1.090e-04   9.996e-05    -3.962    -4.000    -0.038      9.71
   CaCO3           2.647e-06   2.652e-06    -5.577    -5.576     0.001    -14.60
   CO3-2           1.338e-06   9.402e-07    -5.874    -6.027    -0.153     -3.72
   (CO2)2          1.093e-07   1.095e-07    -6.961    -6.961     0.001     68.87
Ca            2.502e-03
   Ca+2            2.390e-03   1.679e-03    -2.622    -2.775    -0.153    -17.97
   CaHCO3+         1.090e-04   9.996e-05    -3.962    -4.000    -0.038      9.71
   CaCO3           2.647e-06   2.652e-06    -5.577    -5.576     0.001    -14.60
   CaOH+           1.311e-09   1.197e-09    -8.882    -8.922    -0.039     (0)  
H(0)          9.864e-10
   H2              4.932e-10   4.941e-10    -9.307    -9.306     0.001     28.61
N(-3)         2.097e-04
   NH4+            2.092e-04   1.903e-04    -3.679    -3.721    -0.041     17.95
   NH3             4.650e-07   4.658e-07    -6.333    -6.332     0.001     24.42
N(0)          3.309e-07
   N2              1.655e-07   1.657e-07    -6.781    -6.781     0.001     29.29
N(3)          0.000e+00
   NO2-            0.000e+00   0.000e+00   -62.452   -62.493    -0.041     25.02
N(5)          0.000e+00
   NO3-            0.000e+00   0.000e+00   -84.866   -84.907    -0.041     29.54
O(0)          0.000e+00
   O2              0.000e+00   0.000e+00   -73.769   -73.768     0.001     30.40

------------------------------Saturation indices-------------------------------

  Phase               SI** log IAP   log K(298 K,   1 atm)

  Aragonite        -0.47     -8.80   -8.34  CaCO3
  Calcite          -0.32     -8.80   -8.48  CaCO3
  CH4(g)           -0.04     -2.85   -2.80  CH4
  CO2(g)           -1.14     -2.61   -1.47  CO2
  H2(g)            -6.21     -9.31   -3.10  H2
  H2O(g)           -1.50     -0.00    1.50  H2O
  N2(g)            -3.60     -6.78   -3.18  N2
  NH3(g)           -8.13     -6.33    1.80  NH3
  O2(g)           -70.88    -73.77   -2.89  O2

**For a gas, SI = log10(fugacity). Fugacity = pressure * phi / 1 atm.
  For ideal gases, phi = 1.

Reaction step 4.

Using solution 1.	Solution after simulation 1.
Using gas phase 1.	
Using reaction 1.	

Reaction 1.	

	  4.000e-03 moles of the following reaction have been added:

	                 Relative
	Reactant            moles

	(CH2O)N0.07          1.00000

	                 Relative
	Element             moles
	C                    1.00000
	H                    2.00000
	N                    0.07000
	O                    1.00000

-----------------------------------Gas phase-----------------------------------

Total pressure:  1.10      atmospheres          (Peng-Robinson calculation)
    Gas volume:   7.24e-03 liters
  Molar volume:   2.22e+01 liters/mole
   P * Vm / RT:  0.99728  (Compressibility Factor Z) 

                                                        Moles in gas
                                            ----------------------------------
Component         log P           P    phi     Initial       Final       Delta

CH4(g)             0.01   1.015e+00  0.998   0.000e+00   3.010e-04   3.010e-04
CO2(g)            -1.07   8.493e-02  0.994   0.000e+00   2.519e-05   2.519e-05
N2(g)             -3.47   3.390e-04  1.000   0.000e+00   1.005e-07   1.005e-07
NH3(g)            -8.06   8.611e-09  0.992   0.000e+00   2.554e-12   2.554e-12

-----------------------------Solution composition------------------------------

	Elements           Molality       Moles

	C                 9.744e-03   9.743e-03
	Ca                2.502e-03   2.502e-03
	N                 2.798e-04   2.798e-04

----------------------------Description of solution----------------------------

                                       pH  =   6.568      Charge balance
                                       pe  =  -3.488      Adjusted to redox equilibrium
      Specific Conductance (µS/cm,  25°C)  = 486
                          Density (g/cm³)  =   0.99738
                               Volume (L)  =   1.00315
                        Viscosity (mPa s)  =   0.89307
                        Activity of water  =   1.000
                 Ionic strength (mol/kgw)  =   7.558e-03
                       Mass of water (kg)  =   9.999e-01
                 Total alkalinity (eq/kg)  =   5.283e-03
                       Total CO2 (mol/kg)  =   8.150e-03
                         Temperature (°C)  =  25.00
                           Pressure (atm)  =  1.10
                  Electrical balance (eq)  =  -1.216e-09
 Percent error, 100*(Cat-|An|)/(Cat+|An|)  =  -0.00
                               Iterations  =  18
                                  Total H  = 1.110192e+02
                                  Total O  = 5.552481e+01

----------------------------Distribution of species----------------------------

                                               Log       Log       Log    mole V
   Species          Molality    Activity  Molality  Activity     Gamma   cm³/mol

   H+              2.931e-07   2.703e-07    -6.533    -6.568    -0.035      0.00
   OH-             4.109e-08   3.744e-08    -7.386    -7.427    -0.040     -4.05
   H2O             5.551e+01   9.998e-01     1.744    -0.000     0.000     18.07
C(-4)         1.594e-03
   CH4             1.594e-03   1.597e-03    -2.797    -2.797     0.001     35.46
C(4)          8.150e-03
   HCO3-           5.165e-03   4.728e-03    -2.287    -2.325    -0.038     24.63
   CO2             2.870e-03   2.873e-03    -2.542    -2.542     0.000     34.43
   CaHCO3+         1.103e-04   1.011e-04    -3.957    -3.995    -0.038      9.72
   CaCO3           2.306e-06   2.310e-06    -5.637    -5.636     0.001    -14.60
   CO3-2           1.169e-06   8.205e-07    -5.932    -6.086    -0.154     -3.72
   (CO2)2          1.513e-07   1.516e-07    -6.820    -6.819     0.001     68.87
Ca            2.502e-03
   Ca+2            2.389e-03   1.676e-03    -2.622    -2.776    -0.154    -17.96
   CaHCO3+         1.103e-04   1.011e-04    -3.957    -3.995    -0.038      9.72
   CaCO3           2.306e-06   2.310e-06    -5.637    -5.636     0.001    -14.60
   CaOH+           1.127e-09   1.029e-09    -8.948    -8.988    -0.040     (0)  
H(0)          9.747e-10
   H2              4.873e-10   4.882e-10    -9.312    -9.311     0.001     28.61
N(-3)         2.794e-04
   NH4+            2.788e-04   2.535e-04    -3.555    -3.596    -0.041     17.95
   NH3             5.335e-07   5.345e-07    -6.273    -6.272     0.001     24.42
N(0)          4.515e-07
   N2              2.258e-07   2.261e-07    -6.646    -6.646     0.001     29.29
N(3)          0.000e+00
   NO2-            0.000e+00   0.000e+00   -62.442   -62.483    -0.041     25.02
N(5)          0.000e+00
   NO3-            0.000e+00   0.000e+00   -84.851   -84.891    -0.041     29.54
O(0)          0.000e+00
   O2              0.000e+00   0.000e+00   -73.758   -73.757     0.001     30.40

------------------------------Saturation indices-------------------------------

  Phase               SI** log IAP   log K(298 K,   1 atm)

  Aragonite        -0.53     -8.86   -8.34  CaCO3
  Calcite          -0.38     -8.86   -8.48  CaCO3
  CH4(g)            0.01     -2.80   -2.80  CH4	 Pressure   1.0 atm, phi 0.998
  CO2(g)           -1.07     -2.54   -1.47  CO2	 Pressure   0.1 atm, phi 0.994
  H2(g)            -6.21     -9.31   -3.10  H2
  H2O(g)           -1.50     -0.00    1.50  H2O
  N2(g)            -3.47     -6.65   -3.18  N2	 Pressure   0.0 atm, phi 1.000
  NH3(g)           -8.07     -6.27    1.80  NH3	 Pressure   0.0 atm, phi 0.992
  O2(g)           -70.87    -73.76   -2.89  O2

**For a gas, SI = log10(fugacity). Fugacity = pressure * phi / 1 atm.
  For ideal gases, phi = 1.

Reaction step 5.

Using solution 1.	Solution after simulation 1.
Using gas phase 1.	
Using reaction 1.	

Reaction 1.	

	  8.000e-03 moles of the following reaction have been added:

	                 Relative
	Reactant            moles

	(CH2O)N0.07          1.00000

	                 Relative
	Element             moles
	C                    1.00000
	H                    2.00000
	N                    0.07000
	O                    1.00000

-----------------------------------Gas phase-----------------------------------

Total pressure:  1.10      atmospheres          (Peng-Robinson calculation)
    Gas volume:   5.72e-02 liters
  Molar volume:   2.22e+01 liters/mole
   P * Vm / RT:  0.99715  (Compressibility Factor Z) 

                                                        Moles in gas
                                            ----------------------------------
Component         log P           P    phi     Initial       Final       Delta

CH4(g)            -0.01   9.684e-01  0.998   0.000e+00   2.271e-03   2.271e-03
CO2(g)            -0.88   1.307e-01  0.994   0.000e+00   3.064e-04   3.064e-04
N2(g)             -3.05   8.910e-04  1.000   0.000e+00   2.089e-06   2.089e-06
NH3(g)            -7.93   1.167e-08  0.992   0.000e+00   2.737e-11   2.737e-11

-----------------------------Solution composition------------------------------

	Elements           Molality       Moles

	C                 1.149e-02   1.149e-02
	Ca                2.502e-03   2.502e-03
	N                 5.559e-04   5.558e-04

----------------------------Description of solution----------------------------

                                       pH  =   6.403      Charge balance
                                       pe  =  -3.296      Adjusted to redox equilibrium
      Specific Conductance (µS/cm,  25°C)  = 514
                          Density (g/cm³)  =   0.99741
                               Volume (L)  =   1.00321
                        Viscosity (mPa s)  =   0.89312
                        Activity of water  =   1.000
                 Ionic strength (mol/kgw)  =   7.825e-03
                       Mass of water (kg)  =   9.999e-01
                 Total alkalinity (eq/kg)  =   5.558e-03
                       Total CO2 (mol/kg)  =   9.972e-03
                         Temperature (°C)  =  25.00
                           Pressure (atm)  =  1.10
                  Electrical balance (eq)  =  -1.216e-09
 Percent error, 100*(Cat-|An|)/(Cat+|An|)  =  -0.00
                               Iterations  =  18
                                  Total H  = 1.110194e+02
                                  Total O  = 5.552824e+01

----------------------------Distribution of species----------------------------

                                               Log       Log       Log    mole V
   Species          Molality    Activity  Molality  Activity     Gamma   cm³/mol

   H+              4.295e-07   3.955e-07    -6.367    -6.403    -0.036      0.00
   OH-             2.812e-08   2.559e-08    -7.551    -7.592    -0.041     -4.05
   H2O             5.551e+01   9.998e-01     1.744    -0.000     0.000     18.07
C(-4)         1.522e-03
   CH4             1.522e-03   1.524e-03    -2.818    -2.817     0.001     35.46
C(4)          9.972e-03
   HCO3-           5.438e-03   4.971e-03    -2.265    -2.304    -0.039     24.64
   CO2             4.416e-03   4.421e-03    -2.355    -2.354     0.001     34.43
   CaHCO3+         1.153e-04   1.055e-04    -3.938    -3.977    -0.038      9.72
   CaCO3           1.645e-06   1.648e-06    -5.784    -5.783     0.001    -14.60
   CO3-2           8.442e-07   5.894e-07    -6.074    -6.230    -0.156     -3.71
   (CO2)2          3.581e-07   3.587e-07    -6.446    -6.445     0.001     68.87
Ca            2.502e-03
   Ca+2            2.385e-03   1.664e-03    -2.623    -2.779    -0.156    -17.96
   CaHCO3+         1.153e-04   1.055e-04    -3.938    -3.977    -0.038      9.72
   CaCO3           1.645e-06   1.648e-06    -5.784    -5.783     0.001    -14.60
   CaOH+           7.659e-10   6.981e-10    -9.116    -9.156    -0.040     (0)  
H(0)          8.649e-10
   H2              4.325e-10   4.332e-10    -9.364    -9.363     0.001     28.61
N(-3)         5.547e-04
   NH4+            5.539e-04   5.028e-04    -3.257    -3.299    -0.042     17.95
   NH3             7.231e-07   7.244e-07    -6.141    -6.140     0.001     24.42
N(0)          1.187e-06
   N2              5.934e-07   5.945e-07    -6.227    -6.226     0.001     29.29
N(3)          0.000e+00
   NO2-            0.000e+00   0.000e+00   -62.319   -62.360    -0.041     25.02
N(5)          0.000e+00
   NO3-            0.000e+00   0.000e+00   -84.676   -84.717    -0.041     29.54
O(0)          0.000e+00
   O2              0.000e+00   0.000e+00   -73.655   -73.654     0.001     30.40

------------------------------Saturation indices-------------------------------

  Phase               SI** log IAP   log K(298 K,   1 atm)

  Aragonite        -0.67     -9.01   -8.34  CaCO3
  Calcite          -0.53     -9.01   -8.48  CaCO3
  CH4(g)           -0.02     -2.82   -2.80  CH4	 Pressure   1.0 atm, phi 0.998
  CO2(g)           -0.89     -2.35   -1.47  CO2	 Pressure   0.1 atm, phi 0.994
  H2(g)            -6.26     -9.36   -3.10  H2
  H2O(g)           -1.50     -0.00    1.50  H2O
  N2(g)            -3.05     -6.23   -3.18  N2	 Pressure   0.0 atm, phi 1.000
  NH3(g)           -7.94     -6.14    1.80  NH3	 Pressure   0.0 atm, phi 0.992
  O2(g)           -70.76    -73.65   -2.89  O2

**For a gas, SI = log10(fugacity). Fugacity = pressure * phi / 1 atm.
  For ideal gases, phi = 1.

Reaction step 6.

Using solution 1.	Solution after simulation 1.
Using gas phase 1.	
Using reaction 1.	

Reaction 1.	

	  1.600e-02 moles of the following reaction have been added:

	                 Relative
	Reactant            moles

	(CH2O)N0.07          1.00000

	                 Relative
	Element             moles
	C                    1.00000
	H                    2.00000
	N                    0.07000
	O                    1.00000

-----------------------------------Gas phase-----------------------------------

Total pressure:  1.10      atmospheres          (Peng-Robinson calculation)
    Gas volume:   1.69e-01 liters
  Molar volume:   2.22e+01 liters/mole
   P * Vm / RT:  0.99694  (Compressibility Factor Z) 

                                                        Moles in gas
                                            ----------------------------------
Component         log P           P    phi     Initial       Final       Delta

CH4(g)            -0.05   8.916e-01  0.998   0.000e+00   6.193e-03   6.193e-03
CO2(g)            -0.69   2.060e-01  0.994   0.000e+00   1.431e-03   1.431e-03
N2(g)             -2.61   2.433e-03  1.000   0.000e+00   1.690e-05   1.690e-05
NH3(g)            -7.80   1.577e-08  0.992   0.000e+00   1.095e-10   1.095e-10

-----------------------------Solution composition------------------------------

	Elements           Molality       Moles

	C                 1.445e-02   1.445e-02
	Ca                2.502e-03   2.502e-03
	N                 1.086e-03   1.086e-03

----------------------------Description of solution----------------------------

                                       pH  =   6.244      Charge balance
                                       pe  =  -3.108      Adjusted to redox equilibrium
      Specific Conductance (µS/cm,  25°C)  = 567
                          Density (g/cm³)  =   0.99745
                               Volume (L)  =   1.00330
                        Viscosity (mPa s)  =   0.89324
                        Activity of water  =   1.000
                 Ionic strength (mol/kgw)  =   8.336e-03
                       Mass of water (kg)  =   9.999e-01
                 Total alkalinity (eq/kg)  =   6.087e-03
                       Total CO2 (mol/kg)  =   1.305e-02
                         Temperature (°C)  =  25.00
                           Pressure (atm)  =  1.10
                  Electrical balance (eq)  =  -1.216e-09
 Percent error, 100*(Cat-|An|)/(Cat+|An|)  =  -0.00
                               Iterations  =  18
                                  Total H  = 1.110197e+02
                                  Total O  = 5.553400e+01

----------------------------Distribution of species----------------------------

                                               Log       Log       Log    mole V
   Species          Molality    Activity  Molality  Activity     Gamma   cm³/mol

   H+              6.206e-07   5.704e-07    -6.207    -6.244    -0.037      0.00
   OH-             1.955e-08   1.774e-08    -7.709    -7.751    -0.042     -4.04
   H2O             5.551e+01   9.997e-01     1.744    -0.000     0.000     18.07
C(-4)         1.401e-03
   CH4             1.401e-03   1.403e-03    -2.854    -2.853     0.001     35.46
C(4)          1.305e-02
   CO2             6.960e-03   6.968e-03    -2.157    -2.157     0.001     34.43
   HCO3-           5.958e-03   5.433e-03    -2.225    -2.265    -0.040     24.64
   CaHCO3+         1.246e-04   1.138e-04    -3.904    -3.944    -0.039      9.72
   CaCO3           1.230e-06   1.232e-06    -5.910    -5.909     0.001    -14.60
   (CO2)2          8.896e-07   8.913e-07    -6.051    -6.050     0.001     68.87
   CO3-2           6.462e-07   4.467e-07    -6.190    -6.350    -0.160     -3.70
Ca            2.502e-03
   Ca+2            2.376e-03   1.642e-03    -2.624    -2.785    -0.161    -17.95
   CaHCO3+         1.246e-04   1.138e-04    -3.904    -3.944    -0.039      9.72
   CaCO3           1.230e-06   1.232e-06    -5.910    -5.909     0.001    -14.60
   CaOH+           5.252e-10   4.775e-10    -9.280    -9.321    -0.041     (0)  
H(0)          7.560e-10
   H2              3.780e-10   3.787e-10    -9.422    -9.422     0.001     28.61
N(-3)         1.083e-03
   NH4+            1.082e-03   9.793e-04    -2.966    -3.009    -0.043     17.95
   NH3             9.766e-07   9.785e-07    -6.010    -6.009     0.001     24.42
N(0)          3.240e-06
   N2              1.620e-06   1.623e-06    -5.790    -5.790     0.001     29.29
N(3)          0.000e+00
   NO2-            0.000e+00   0.000e+00   -62.171   -62.214    -0.043     25.02
N(5)          0.000e+00
   NO3-            0.000e+00   0.000e+00   -84.470   -84.512    -0.043     29.55
O(0)          0.000e+00
   O2              0.000e+00   0.000e+00   -73.538   -73.537     0.001     30.40

------------------------------Saturation indices-------------------------------

  Phase               SI** log IAP   log K(298 K,   1 atm)

  Aragonite        -0.80     -9.13   -8.34  CaCO3
  Calcite          -0.65     -9.13   -8.48  CaCO3
  CH4(g)           -0.05     -2.85   -2.80  CH4	 Pressure   0.9 atm, phi 0.998
  CO2(g)           -0.69     -2.16   -1.47  CO2	 Pressure   0.2 atm, phi 0.994
  H2(g)            -6.32     -9.42   -3.10  H2
  H2O(g)           -1.50     -0.00    1.50  H2O
  N2(g)            -2.61     -5.79   -3.18  N2	 Pressure   0.0 atm, phi 1.000
  NH3(g)           -7.81     -6.01    1.80  NH3	 Pressure   0.0 atm, phi 0.992
  O2(g)           -70.64    -73.54   -2.89  O2

**For a gas, SI = log10(fugacity). Fugacity = pressure * phi / 1 atm.
  For ideal gases, phi = 1.

Reaction step 7.

Using solution 1.	Solution after simulation 1.
Using gas phase 1.	
Using reaction 1.	

Reaction 1.	

	  3.200e-02 moles of the following reaction have been added:

	                 Relative
	Reactant            moles

	(CH2O)N0.07          1.00000

	                 Relative
	Element             moles
	C                    1.00000
	H                    2.00000
	N                    0.07000
	O                    1.00000

-----------------------------------Gas phase-----------------------------------

Total pressure:  1.10      atmospheres          (Peng-Robinson calculation)
    Gas volume:   4.35e-01 liters
  Molar volume:   2.22e+01 liters/mole
   P * Vm / RT:  0.99665  (Compressibility Factor Z) 

                                                        Moles in gas
                                            ----------------------------------
Component         log P           P    phi     Initial       Final       Delta

CH4(g)            -0.10   7.863e-01  0.998   0.000e+00   1.402e-02   1.402e-02
CO2(g)            -0.51   3.067e-01  0.994   0.000e+00   5.469e-03   5.469e-03
N2(g)             -2.15   7.040e-03  1.000   0.000e+00   1.255e-04   1.255e-04
NH3(g)            -7.66   2.205e-08  0.992   0.000e+00   3.932e-10   3.932e-10

-----------------------------Solution composition------------------------------

	Elements           Molality       Moles

	C                 1.858e-02   1.858e-02
	Ca                2.502e-03   2.502e-03
	N                 1.989e-03   1.989e-03

----------------------------Description of solution----------------------------

                                       pH  =   6.129      Charge balance
                                       pe  =  -2.965      Adjusted to redox equilibrium
      Specific Conductance (µS/cm,  25°C)  = 657
                          Density (g/cm³)  =   0.99752
                               Volume (L)  =   1.00342
                        Viscosity (mPa s)  =   0.89348
                        Activity of water  =   1.000
                 Ionic strength (mol/kgw)  =   9.203e-03
                       Mass of water (kg)  =   9.999e-01
                 Total alkalinity (eq/kg)  =   6.984e-03
                       Total CO2 (mol/kg)  =   1.734e-02
                         Temperature (°C)  =  25.00
                           Pressure (atm)  =  1.10
                  Electrical balance (eq)  =  -1.216e-09
 Percent error, 100*(Cat-|An|)/(Cat+|An|)  =  -0.00
                               Iterations  =  20
                                  Total H  = 1.110203e+02
                                  Total O  = 5.554192e+01

----------------------------Distribution of species----------------------------

                                               Log       Log       Log    mole V
   Species          Molality    Activity  Molality  Activity     Gamma   cm³/mol

   H+              8.107e-07   7.425e-07    -6.091    -6.129    -0.038      0.00
   OH-             1.508e-08   1.363e-08    -7.822    -7.866    -0.044     -4.04
   H2O             5.551e+01   9.996e-01     1.744    -0.000     0.000     18.07
C(-4)         1.235e-03
   CH4             1.235e-03   1.238e-03    -2.908    -2.907     0.001     35.46
C(4)          1.734e-02
   CO2             1.036e-02   1.037e-02    -1.985    -1.984     0.001     34.43
   HCO3-           6.840e-03   6.212e-03    -2.165    -2.207    -0.042     24.64
   CaHCO3+         1.399e-04   1.272e-04    -3.854    -3.895    -0.041      9.72
   (CO2)2          1.971e-06   1.975e-06    -5.705    -5.704     0.001     68.87
   CaCO3           1.056e-06   1.058e-06    -5.976    -5.975     0.001    -14.60
   CO3-2           5.767e-07   3.924e-07    -6.239    -6.406    -0.167     -3.68
Ca            2.502e-03
   Ca+2            2.361e-03   1.605e-03    -2.627    -2.794    -0.168    -17.94
   CaHCO3+         1.399e-04   1.272e-04    -3.854    -3.895    -0.041      9.72
   CaCO3           1.056e-06   1.058e-06    -5.976    -5.975     0.001    -14.60
   CaOH+           3.962e-10   3.586e-10    -9.402    -9.445    -0.043     (0)  
H(0)          6.631e-10
   H2              3.316e-10   3.323e-10    -9.479    -9.479     0.001     28.61
N(-3)         1.980e-03
   NH4+            1.978e-03   1.782e-03    -2.704    -2.749    -0.045     17.96
   NH3             1.365e-06   1.368e-06    -5.865    -5.864     0.001     24.42
N(0)          9.376e-06
   N2              4.688e-06   4.698e-06    -5.329    -5.328     0.001     29.29
N(3)          0.000e+00
   NO2-            0.000e+00   0.000e+00   -61.968   -62.012    -0.045     25.03
N(5)          0.000e+00
   NO3-            0.000e+00   0.000e+00   -84.209   -84.254    -0.045     29.55
O(0)          0.000e+00
   O2              0.000e+00   0.000e+00   -73.424   -73.423     0.001     30.40

------------------------------Saturation indices-------------------------------

  Phase               SI** log IAP   log K(298 K,   1 atm)

  Aragonite        -0.86     -9.20   -8.34  CaCO3
  Calcite          -0.72     -9.20   -8.48  CaCO3
  CH4(g)           -0.11     -2.91   -2.80  CH4	 Pressure   0.8 atm, phi 0.998
  CO2(g)           -0.52     -1.98   -1.47  CO2	 Pressure   0.3 atm, phi 0.994
  H2(g)            -6.38     -9.48   -3.10  H2
  H2O(g)           -1.50     -0.00    1.50  H2O
  N2(g)            -2.15     -5.33   -3.18  N2	 Pressure   0.0 atm, phi 1.000
  NH3(g)           -7.66     -5.86    1.80  NH3	 Pressure   0.0 atm, phi 0.992
  O2(g)           -70.53    -73.42   -2.89  O2

**For a gas, SI = log10(fugacity). Fugacity = pressure * phi / 1 atm.
  For ideal gases, phi = 1.

Reaction step 8.

Using solution 1.	Solution after simulation 1.
Using gas phase 1.	
Using reaction 1.	

Reaction 1.	

	  6.400e-02 moles of the following reaction have been added:

	                 Relative
	Reactant            moles

	(CH2O)N0.07          1.00000

	                 Relative
	Element             moles
	C                    1.00000
	H                    2.00000
	N                    0.07000
	O                    1.00000

-----------------------------------Gas phase-----------------------------------

Total pressure:  1.10      atmospheres          (Peng-Robinson calculation)
    Gas volume:   1.07e+00 liters
  Molar volume:   2.22e+01 liters/mole
   P * Vm / RT:  0.99638  (Compressibility Factor Z) 

                                                        Moles in gas
                                            ----------------------------------
Component         log P           P    phi     Initial       Final       Delta

CH4(g)            -0.17   6.811e-01  0.998   0.000e+00   2.980e-02   2.980e-02
CO2(g)            -0.40   4.023e-01  0.994   0.000e+00   1.760e-02   1.760e-02
N2(g)             -1.78   1.662e-02  1.000   0.000e+00   7.272e-04   7.272e-04
NH3(g)            -7.54   2.900e-08  0.992   0.000e+00   1.269e-09   1.269e-09

-----------------------------Solution composition------------------------------

	Elements           Molality       Moles

	C                 2.267e-02   2.266e-02
	Ca                2.502e-03   2.502e-03
	N                 3.026e-03   3.026e-03

----------------------------Description of solution----------------------------

                                       pH  =   6.069      Charge balance
                                       pe  =  -2.883      Adjusted to redox equilibrium
      Specific Conductance (µS/cm,  25°C)  = 761
                          Density (g/cm³)  =   0.99759
                               Volume (L)  =   1.00353
                        Viscosity (mPa s)  =   0.89378
                        Activity of water  =   1.000
                 Ionic strength (mol/kgw)  =   1.019e-02
                       Mass of water (kg)  =   9.999e-01
                 Total alkalinity (eq/kg)  =   8.008e-03
                       Total CO2 (mol/kg)  =   2.160e-02
                         Temperature (°C)  =  25.00
                           Pressure (atm)  =  1.10
                  Electrical balance (eq)  =  -1.216e-09
 Percent error, 100*(Cat-|An|)/(Cat+|An|)  =  -0.00
                               Iterations  =  19
                                  Total H  = 1.110212e+02
                                  Total O  = 5.554965e+01

----------------------------Distribution of species----------------------------

                                               Log       Log       Log    mole V
   Species          Molality    Activity  Molality  Activity     Gamma   cm³/mol

   H+              9.340e-07   8.525e-07    -6.030    -6.069    -0.040      0.00
   OH-             1.320e-08   1.187e-08    -7.879    -7.926    -0.046     -4.03
   H2O             5.551e+01   9.995e-01     1.744    -0.000     0.000     18.07
C(-4)         1.070e-03
   CH4             1.070e-03   1.072e-03    -2.971    -2.970     0.001     35.46
C(4)          2.160e-02
   CO2             1.359e-02   1.361e-02    -1.867    -1.866     0.001     34.43
   HCO3-           7.847e-03   7.096e-03    -2.105    -2.149    -0.044     24.65
   CaHCO3+         1.566e-04   1.419e-04    -3.805    -3.848    -0.043      9.72
   (CO2)2          3.390e-06   3.398e-06    -5.470    -5.469     0.001     68.87
   CaCO3           1.025e-06   1.028e-06    -5.989    -5.988     0.001    -14.60
   CO3-2           5.838e-07   3.904e-07    -6.234    -6.408    -0.175     -3.66
Ca            2.502e-03
   Ca+2            2.344e-03   1.567e-03    -2.630    -2.805    -0.175    -17.92
   CaHCO3+         1.566e-04   1.419e-04    -3.805    -3.848    -0.043      9.72
   CaCO3           1.025e-06   1.028e-06    -5.989    -5.988     0.001    -14.60
   CaOH+           3.383e-10   3.049e-10    -9.471    -9.516    -0.045     (0)  
H(0)          5.976e-10
   H2              2.988e-10   2.995e-10    -9.525    -9.524     0.001     28.61
N(-3)         3.004e-03
   NH4+            3.002e-03   2.691e-03    -2.523    -2.570    -0.048     17.96
   NH3             1.795e-06   1.799e-06    -5.746    -5.745     0.001     24.42
N(0)          2.213e-05
   N2              1.107e-05   1.109e-05    -4.956    -4.955     0.001     29.29
N(3)          0.000e+00
   NO2-            0.000e+00   0.000e+00   -61.771   -61.818    -0.047     25.03
N(5)          0.000e+00
   NO3-            0.000e+00   0.000e+00   -83.968   -84.015    -0.047     29.56
O(0)          0.000e+00
   O2              0.000e+00   0.000e+00   -73.334   -73.333     0.001     30.40

------------------------------Saturation indices-------------------------------

  Phase               SI** log IAP   log K(298 K,   1 atm)

  Aragonite        -0.88     -9.21   -8.34  CaCO3
  Calcite          -0.73     -9.21   -8.48  CaCO3
  CH4(g)           -0.17     -2.97   -2.80  CH4	 Pressure   0.7 atm, phi 0.998
  CO2(g)           -0.40     -1.87   -1.47  CO2	 Pressure   0.4 atm, phi 0.994
  H2(g)            -6.42     -9.52   -3.10  H2
  H2O(g)           -1.50     -0.00    1.50  H2O
  N2(g)            -1.78     -4.96   -3.18  N2	 Pressure   0.0 atm, phi 1.000
  NH3(g)           -7.54     -5.75    1.80  NH3	 Pressure   0.0 atm, phi 0.992
  O2(g)           -70.44    -73.33   -2.89  O2

**For a gas, SI = log10(fugacity). Fugacity = pressure * phi / 1 atm.
  For ideal gases, phi = 1.

Reaction step 9.

Using solution 1.	Solution after simulation 1.
Using gas phase 1.	
Using reaction 1.	

Reaction 1.	

	  1.250e-01 moles of the following reaction have been added:

	                 Relative
	Reactant            moles

	(CH2O)N0.07          1.00000

	                 Relative
	Element             moles
	C                    1.00000
	H                    2.00000
	N                    0.07000
	O                    1.00000

-----------------------------------Gas phase-----------------------------------

Total pressure:  1.10      atmospheres          (Peng-Robinson calculation)
    Gas volume:   2.40e+00 liters
  Molar volume:   2.22e+01 liters/mole
   P * Vm / RT:  0.99621  (Compressibility Factor Z) 

                                                        Moles in gas
                                            ----------------------------------
Component         log P           P    phi     Initial       Final       Delta

CH4(g)            -0.21   6.109e-01  0.998   0.000e+00   6.017e-02   6.017e-02
CO2(g)            -0.33   4.633e-01  0.994   0.000e+00   4.564e-02   4.564e-02
N2(g)             -1.59   2.573e-02  1.000   0.000e+00   2.535e-03   2.535e-03
NH3(g)            -7.48   3.285e-08  0.992   0.000e+00   3.236e-09   3.236e-09

-----------------------------Solution composition------------------------------

	Elements           Molality       Moles

	C                 2.526e-02   2.526e-02
	Ca                2.502e-03   2.502e-03
	N                 3.682e-03   3.681e-03

----------------------------Description of solution----------------------------

                                       pH  =   6.041      Charge balance
                                       pe  =  -2.840      Adjusted to redox equilibrium
      Specific Conductance (µS/cm,  25°C)  = 826
                          Density (g/cm³)  =   0.99764
                               Volume (L)  =   1.00361
                        Viscosity (mPa s)  =   0.89398
                        Activity of water  =   0.999
                 Ionic strength (mol/kgw)  =   1.082e-02
                       Mass of water (kg)  =   9.998e-01
                 Total alkalinity (eq/kg)  =   8.651e-03
                       Total CO2 (mol/kg)  =   2.430e-02
                         Temperature (°C)  =  25.00
                           Pressure (atm)  =  1.10
                  Electrical balance (eq)  =  -1.216e-09
 Percent error, 100*(Cat-|An|)/(Cat+|An|)  =  -0.00
                               Iterations  =  23
                                  Total H  = 1.110217e+02
                                  Total O  = 5.555458e+01

----------------------------Distribution of species----------------------------

                                               Log       Log       Log    mole V
   Species          Molality    Activity  Molality  Activity     Gamma   cm³/mol

   H+              1.000e-06   9.109e-07    -6.000    -6.041    -0.041      0.00
   OH-             1.239e-08   1.111e-08    -7.907    -7.954    -0.047     -4.03
   H2O             5.551e+01   9.995e-01     1.744    -0.000     0.000     18.07
C(-4)         9.593e-04
   CH4             9.593e-04   9.617e-04    -3.018    -3.017     0.001     35.46
C(4)          2.430e-02
   CO2             1.565e-02   1.567e-02    -1.806    -1.805     0.001     34.43
   HCO3-           8.480e-03   7.649e-03    -2.072    -2.116    -0.045     24.65
   CaHCO3+         1.668e-04   1.507e-04    -3.778    -3.822    -0.044      9.73
   (CO2)2          4.497e-06   4.508e-06    -5.347    -5.346     0.001     68.87
   CaCO3           1.019e-06   1.022e-06    -5.992    -5.991     0.001    -14.60
   CO3-2           5.950e-07   3.939e-07    -6.225    -6.405    -0.179     -3.65
Ca            2.502e-03
   Ca+2            2.334e-03   1.544e-03    -2.632    -2.811    -0.179    -17.92
   CaHCO3+         1.668e-04   1.507e-04    -3.778    -3.822    -0.044      9.73
   CaCO3           1.019e-06   1.022e-06    -5.992    -5.991     0.001    -14.60
   CaOH+           3.129e-10   2.812e-10    -9.505    -9.551    -0.046     (0)  
H(0)          5.613e-10
   H2              2.807e-10   2.814e-10    -9.552    -9.551     0.001     28.61
N(-3)         3.647e-03
   NH4+            3.645e-03   3.257e-03    -2.438    -2.487    -0.049     17.97
   NH3             2.033e-06   2.038e-06    -5.692    -5.691     0.001     24.42
N(0)          3.427e-05
   N2              1.713e-05   1.718e-05    -4.766    -4.765     0.001     29.29
N(3)          0.000e+00
   NO2-            0.000e+00   0.000e+00   -61.663   -61.711    -0.048     25.04
N(5)          0.000e+00
   NO3-            0.000e+00   0.000e+00   -83.833   -83.881    -0.048     29.56
O(0)          0.000e+00
   O2              0.000e+00   0.000e+00   -73.280   -73.279     0.001     30.40

------------------------------Saturation indices-------------------------------

  Phase               SI** log IAP   log K(298 K,   1 atm)

  Aragonite        -0.88     -9.22   -8.34  CaCO3
  Calcite          -0.74     -9.22   -8.48  CaCO3
  CH4(g)           -0.22     -3.02   -2.80  CH4	 Pressure   0.6 atm, phi 0.998
  CO2(g)           -0.34     -1.80   -1.47  CO2	 Pressure   0.5 atm, phi 0.994
  H2(g)            -6.45     -9.55   -3.10  H2
  H2O(g)           -1.50     -0.00    1.50  H2O
  N2(g)            -1.59     -4.77   -3.18  N2	 Pressure   0.0 atm, phi 1.000
  NH3(g)           -7.49     -5.69    1.80  NH3	 Pressure   0.0 atm, phi 0.992
  O2(g)           -70.39    -73.28   -2.89  O2

**For a gas, SI = log10(fugacity). Fugacity = pressure * phi / 1 atm.
  For ideal gases, phi = 1.

Reaction step 10.

Using solution 1.	Solution after simulation 1.
Using gas phase 1.	
Using reaction 1.	

Reaction 1.	

	  2.500e-01 moles of the following reaction have been added:

	                 Relative
	Reactant            moles

	(CH2O)N0.07          1.00000

	                 Relative
	Element             moles
	C                    1.00000
	H                    2.00000
	N                    0.07000
	O                    1.00000

-----------------------------------Gas phase-----------------------------------

Total pressure:  1.10      atmospheres          (Peng-Robinson calculation)
    Gas volume:   5.23e+00 liters
  Molar volume:   2.22e+01 liters/mole
   P * Vm / RT:  0.99611  (Compressibility Factor Z) 

                                                        Moles in gas
                                            ----------------------------------
Component         log P           P    phi     Initial       Final       Delta

CH4(g)            -0.24   5.712e-01  0.998   0.000e+00   1.226e-01   1.226e-01
CO2(g)            -0.30   4.974e-01  0.994   0.000e+00   1.068e-01   1.068e-01
N2(g)             -1.50   3.142e-02  1.001   0.000e+00   6.744e-03   6.744e-03
NH3(g)            -7.46   3.447e-08  0.992   0.000e+00   7.400e-09   7.400e-09

-----------------------------Solution composition------------------------------

	Elements           Molality       Moles

	C                 2.667e-02   2.667e-02
	Ca                2.502e-03   2.502e-03
	N                 4.012e-03   4.011e-03

----------------------------Description of solution----------------------------

                                       pH  =   6.025      Charge balance
                                       pe  =  -2.817      Adjusted to redox equilibrium
      Specific Conductance (µS/cm,  25°C)  = 859
                          Density (g/cm³)  =   0.99766
                               Volume (L)  =   1.00365
                        Viscosity (mPa s)  =   0.89408
                        Activity of water  =   0.999
                 Ionic strength (mol/kgw)  =   1.113e-02
                       Mass of water (kg)  =   9.998e-01
                 Total alkalinity (eq/kg)  =   8.974e-03
                       Total CO2 (mol/kg)  =   2.578e-02
                         Temperature (°C)  =  25.00
                           Pressure (atm)  =  1.10
                  Electrical balance (eq)  =  -1.216e-09
 Percent error, 100*(Cat-|An|)/(Cat+|An|)  =  -0.00
                               Iterations  =  20
                                  Total H  = 1.110220e+02
                                  Total O  = 5.555729e+01

----------------------------Distribution of species----------------------------

                                               Log       Log       Log    mole V
   Species          Molality    Activity  Molality  Activity     Gamma   cm³/mol

   H+              1.037e-06   9.437e-07    -5.984    -6.025    -0.041      0.00
   OH-             1.197e-08   1.072e-08    -7.922    -7.970    -0.048     -4.03
   H2O             5.551e+01   9.994e-01     1.744    -0.000     0.000     18.07
C(-4)         8.968e-04
   CH4             8.968e-04   8.991e-04    -3.047    -3.046     0.001     35.46
C(4)          2.578e-02
   CO2             1.680e-02   1.682e-02    -1.775    -1.774     0.001     34.43
   HCO3-           8.798e-03   7.926e-03    -2.056    -2.101    -0.045     24.65
   CaHCO3+         1.718e-04   1.551e-04    -3.765    -3.810    -0.045      9.73
   (CO2)2          5.182e-06   5.196e-06    -5.285    -5.284     0.001     68.87
   CaCO3           1.012e-06   1.015e-06    -5.995    -5.994     0.001    -14.60
   CO3-2           5.981e-07   3.940e-07    -6.223    -6.405    -0.181     -3.64
Ca            2.502e-03
   Ca+2            2.329e-03   1.533e-03    -2.633    -2.814    -0.182    -17.91
   CaHCO3+         1.718e-04   1.551e-04    -3.765    -3.810    -0.045      9.73
   CaCO3           1.012e-06   1.015e-06    -5.995    -5.994     0.001    -14.60
   CaOH+           3.003e-10   2.695e-10    -9.522    -9.569    -0.047     (0)  
H(0)          5.422e-10
   H2              2.711e-10   2.718e-10    -9.567    -9.566     0.001     28.61
N(-3)         3.970e-03
   NH4+            3.968e-03   3.540e-03    -2.401    -2.451    -0.050     17.97
   NH3             2.132e-06   2.138e-06    -5.671    -5.670     0.001     24.42
N(0)          4.183e-05
   N2              2.092e-05   2.097e-05    -4.680    -4.678     0.001     29.29
N(3)          0.000e+00
   NO2-            0.000e+00   0.000e+00   -61.612   -61.661    -0.049     25.04
N(5)          0.000e+00
   NO3-            0.000e+00   0.000e+00   -83.767   -83.815    -0.049     29.56
O(0)          0.000e+00
   O2              0.000e+00   0.000e+00   -73.250   -73.249     0.001     30.40

------------------------------Saturation indices-------------------------------

  Phase               SI** log IAP   log K(298 K,   1 atm)

  Aragonite        -0.88     -9.22   -8.34  CaCO3
  Calcite          -0.74     -9.22   -8.48  CaCO3
  CH4(g)           -0.24     -3.05   -2.80  CH4	 Pressure   0.6 atm, phi 0.998
  CO2(g)           -0.31     -1.77   -1.47  CO2	 Pressure   0.5 atm, phi 0.994
  H2(g)            -6.46     -9.57   -3.10  H2
  H2O(g)           -1.50     -0.00    1.50  H2O
  N2(g)            -1.50     -4.68   -3.18  N2	 Pressure   0.0 atm, phi 1.001
  NH3(g)           -7.47     -5.67    1.80  NH3	 Pressure   0.0 atm, phi 0.992
  O2(g)           -70.36    -73.25   -2.89  O2

**For a gas, SI = log10(fugacity). Fugacity = pressure * phi / 1 atm.
  For ideal gases, phi = 1.

Reaction step 11.

Using solution 1.	Solution after simulation 1.
Using gas phase 1.	
Using reaction 1.	

Reaction 1.	

	  5.000e-01 moles of the following reaction have been added:

	                 Relative
	Reactant            moles

	(CH2O)N0.07          1.00000

	                 Relative
	Element             moles
	C                    1.00000
	H                    2.00000
	N                    0.07000
	O                    1.00000

-----------------------------------Gas phase-----------------------------------

Total pressure:  1.10      atmospheres          (Peng-Robinson calculation)
    Gas volume:   1.09e+01 liters
  Molar volume:   2.22e+01 liters/mole
   P * Vm / RT:  0.99607  (Compressibility Factor Z) 

                                                        Moles in gas
                                            ----------------------------------
Component         log P           P    phi     Initial       Final       Delta

CH4(g)            -0.26   5.512e-01  0.998   0.000e+00   2.476e-01   2.476e-01
CO2(g)            -0.29   5.145e-01  0.994   0.000e+00   2.311e-01   2.311e-01
N2(g)             -1.46   3.432e-02  1.001   0.000e+00   1.542e-02   1.542e-02
NH3(g)            -7.45   3.510e-08  0.992   0.000e+00   1.577e-08   1.577e-08

-----------------------------Solution composition------------------------------

	Elements           Molality       Moles

	C                 2.737e-02   2.736e-02
	Ca                2.502e-03   2.502e-03
	N                 4.164e-03   4.164e-03

----------------------------Description of solution----------------------------

                                       pH  =   6.017      Charge balance
                                       pe  =  -2.806      Adjusted to redox equilibrium
      Specific Conductance (µS/cm,  25°C)  = 874
                          Density (g/cm³)  =   0.99767
                               Volume (L)  =   1.00367
                        Viscosity (mPa s)  =   0.89413
                        Activity of water  =   0.999
                 Ionic strength (mol/kgw)  =   1.127e-02
                       Mass of water (kg)  =   9.998e-01
                 Total alkalinity (eq/kg)  =   9.123e-03
                       Total CO2 (mol/kg)  =   2.650e-02
                         Temperature (°C)  =  25.00
                           Pressure (atm)  =  1.10
                  Electrical balance (eq)  =  -1.216e-09
 Percent error, 100*(Cat-|An|)/(Cat+|An|)  =  -0.00
                               Iterations  =  24
                                  Total H  = 1.110221e+02
                                  Total O  = 5.555863e+01

----------------------------Distribution of species----------------------------

                                               Log       Log       Log    mole V
   Species          Molality    Activity  Molality  Activity     Gamma   cm³/mol

   H+              1.056e-06   9.606e-07    -5.976    -6.017    -0.041      0.00
   OH-             1.177e-08   1.053e-08    -7.929    -7.978    -0.048     -4.03
   H2O             5.551e+01   9.994e-01     1.744    -0.000     0.000     18.07
C(-4)         8.654e-04
   CH4             8.654e-04   8.676e-04    -3.063    -3.062     0.001     35.46
C(4)          2.650e-02
   CO2             1.737e-02   1.740e-02    -1.760    -1.759     0.001     34.43
   HCO3-           8.944e-03   8.053e-03    -2.048    -2.094    -0.046     24.65
   CaHCO3+         1.741e-04   1.570e-04    -3.759    -3.804    -0.045      9.73
   (CO2)2          5.544e-06   5.558e-06    -5.256    -5.255     0.001     68.87
   CaCO3           1.007e-06   1.009e-06    -5.997    -5.996     0.001    -14.60
   CO3-2           5.983e-07   3.932e-07    -6.223    -6.405    -0.182     -3.64
Ca            2.502e-03
   Ca+2            2.327e-03   1.528e-03    -2.633    -2.816    -0.183    -17.91
   CaHCO3+         1.741e-04   1.570e-04    -3.759    -3.804    -0.045      9.73
   CaCO3           1.007e-06   1.009e-06    -5.997    -5.996     0.001    -14.60
   CaOH+           2.942e-10   2.639e-10    -9.531    -9.579    -0.047     (0)  
H(0)          5.329e-10
   H2              2.664e-10   2.671e-10    -9.574    -9.573     0.001     28.61
N(-3)         4.119e-03
   NH4+            4.116e-03   3.670e-03    -2.385    -2.435    -0.050     17.97
   NH3             2.172e-06   2.177e-06    -5.663    -5.662     0.001     24.42
N(0)          4.570e-05
   N2              2.285e-05   2.291e-05    -4.641    -4.640     0.001     29.29
N(3)          0.000e+00
   NO2-            0.000e+00   0.000e+00   -61.589   -61.638    -0.049     25.04
N(5)          0.000e+00
   NO3-            0.000e+00   0.000e+00   -83.736   -83.785    -0.049     29.56
O(0)          0.000e+00
   O2              0.000e+00   0.000e+00   -73.235   -73.234     0.001     30.40

------------------------------Saturation indices-------------------------------

  Phase               SI** log IAP   log K(298 K,   1 atm)

  Aragonite        -0.89     -9.22   -8.34  CaCO3
  Calcite          -0.74     -9.22   -8.48  CaCO3
  CH4(g)           -0.26     -3.06   -2.80  CH4	 Pressure   0.6 atm, phi 0.998
  CO2(g)           -0.29     -1.76   -1.47  CO2	 Pressure   0.5 atm, phi 0.994
  H2(g)            -6.47     -9.57   -3.10  H2
  H2O(g)           -1.50     -0.00    1.50  H2O
  N2(g)            -1.46     -4.64   -3.18  N2	 Pressure   0.0 atm, phi 1.001
  NH3(g)           -7.46     -5.66    1.80  NH3	 Pressure   0.0 atm, phi 0.992
  O2(g)           -70.34    -73.23   -2.89  O2

**For a gas, SI = log10(fugacity). Fugacity = pressure * phi / 1 atm.
  For ideal gases, phi = 1.

Reaction step 12.

Using solution 1.	Solution after simulation 1.
Using gas phase 1.	
Using reaction 1.	

Reaction 1.	

	  1.000e+00 moles of the following reaction have been added:

	                 Relative
	Reactant            moles

	(CH2O)N0.07          1.00000

	                 Relative
	Element             moles
	C                    1.00000
	H                    2.00000
	N                    0.07000
	O                    1.00000

-----------------------------------Gas phase-----------------------------------

Total pressure:  1.10      atmospheres          (Peng-Robinson calculation)
    Gas volume:   2.24e+01 liters
  Molar volume:   2.22e+01 liters/mole
   P * Vm / RT:  0.99604  (Compressibility Factor Z) 

                                                        Moles in gas
                                            ----------------------------------
Component         log P           P    phi     Initial       Final       Delta

CH4(g)            -0.27   5.413e-01  0.998   0.000e+00   4.976e-01   4.976e-01
CO2(g)            -0.28   5.230e-01  0.994   0.000e+00   4.808e-01   4.808e-01
N2(g)             -1.45   3.577e-02  1.001   0.000e+00   3.288e-02   3.288e-02
NH3(g)            -7.45   3.537e-08  0.992   0.000e+00   3.252e-08   3.252e-08

-----------------------------Solution composition------------------------------

	Elements           Molality       Moles

	C                 2.771e-02   2.770e-02
	Ca                2.502e-03   2.502e-03
	N                 4.236e-03   4.236e-03

----------------------------Description of solution----------------------------

                                       pH  =   6.014      Charge balance
                                       pe  =  -2.800      Adjusted to redox equilibrium
      Specific Conductance (µS/cm,  25°C)  = 881
                          Density (g/cm³)  =   0.99768
                               Volume (L)  =   1.00368
                        Viscosity (mPa s)  =   0.89415
                        Activity of water  =   0.999
                 Ionic strength (mol/kgw)  =   1.134e-02
                       Mass of water (kg)  =   9.998e-01
                 Total alkalinity (eq/kg)  =   9.193e-03
                       Total CO2 (mol/kg)  =   2.686e-02
                         Temperature (°C)  =  25.00
                           Pressure (atm)  =  1.10
                  Electrical balance (eq)  =  -1.216e-09
 Percent error, 100*(Cat-|An|)/(Cat+|An|)  =  -0.00
                               Iterations  =  23
                                  Total H  = 1.110221e+02
                                  Total O  = 5.555929e+01

----------------------------Distribution of species----------------------------

                                               Log       Log       Log    mole V
   Species          Molality    Activity  Molality  Activity     Gamma   cm³/mol

   H+              1.066e-06   9.692e-07    -5.972    -6.014    -0.041      0.00
   OH-             1.167e-08   1.044e-08    -7.933    -7.981    -0.048     -4.03
   H2O             5.551e+01   9.994e-01     1.744    -0.000     0.000     18.07
C(-4)         8.498e-04
   CH4             8.498e-04   8.520e-04    -3.071    -3.070     0.001     35.46
C(4)          2.686e-02
   CO2             1.766e-02   1.769e-02    -1.753    -1.752     0.001     34.43
   HCO3-           9.013e-03   8.113e-03    -2.045    -2.091    -0.046     24.65
   CaHCO3+         1.752e-04   1.580e-04    -3.757    -3.801    -0.045      9.73
   (CO2)2          5.728e-06   5.743e-06    -5.242    -5.241     0.001     68.87
   CaCO3           1.004e-06   1.006e-06    -5.998    -5.997     0.001    -14.60
   CO3-2           5.980e-07   3.926e-07    -6.223    -6.406    -0.183     -3.64
Ca            2.502e-03
   Ca+2            2.326e-03   1.526e-03    -2.633    -2.816    -0.183    -17.91
   CaHCO3+         1.752e-04   1.580e-04    -3.757    -3.801    -0.045      9.73
   CaCO3           1.004e-06   1.006e-06    -5.998    -5.997     0.001    -14.60
   CaOH+           2.912e-10   2.611e-10    -9.536    -9.583    -0.047     (0)  
H(0)          5.283e-10
   H2              2.641e-10   2.648e-10    -9.578    -9.577     0.001     28.61
N(-3)         4.189e-03
   NH4+            4.187e-03   3.732e-03    -2.378    -2.428    -0.050     17.97
   NH3             2.188e-06   2.194e-06    -5.660    -5.659     0.001     24.42
N(0)          4.763e-05
   N2              2.381e-05   2.388e-05    -4.623    -4.622     0.001     29.29
N(3)          0.000e+00
   NO2-            0.000e+00   0.000e+00   -61.578   -61.627    -0.049     25.04
N(5)          0.000e+00
   NO3-            0.000e+00   0.000e+00   -83.721   -83.771    -0.049     29.56
O(0)          0.000e+00
   O2              0.000e+00   0.000e+00   -73.228   -73.227     0.001     30.40

------------------------------Saturation indices-------------------------------

  Phase               SI** log IAP   log K(298 K,   1 atm)

  Aragonite        -0.89     -9.22   -8.34  CaCO3
  Calcite          -0.74     -9.22   -8.48  CaCO3
  CH4(g)           -0.27     -3.07   -2.80  CH4	 Pressure   0.5 atm, phi 0.998
  CO2(g)           -0.28     -1.75   -1.47  CO2	 Pressure   0.5 atm, phi 0.994
  H2(g)            -6.48     -9.58   -3.10  H2
  H2O(g)           -1.50     -0.00    1.50  H2O
  N2(g)            -1.45     -4.62   -3.18  N2	 Pressure   0.0 atm, phi 1.001
  NH3(g)           -7.45     -5.66    1.80  NH3	 Pressure   0.0 atm, phi 0.992
  O2(g)           -70.33    -73.23   -2.89  O2

**For a gas, SI = log10(fugacity). Fugacity = pressure * phi / 1 atm.
  For ideal gases, phi = 1.

------------------
End of simulation.
------------------

------------------------------------
Reading input data for simulation 3.
------------------------------------

