WARNING: Database file from DATABASE keyword is used; command line argument ignored.
   Input file: ex7_T_P
  Output file: ex7_T_P.out
Database file: ../database/phreeqc.dat

------------------
Reading data base.
------------------

	SOLUTION_MASTER_SPECIES
	SOLUTION_SPECIES
	PHASES
	EXCHANGE_MASTER_SPECIES
	EXCHANGE_SPECIES
	SURFACE_MASTER_SPECIES
	SURFACE_SPECIES
	RATES
	END
------------------------------------
Reading input data for simulation 1.
------------------------------------

	DATABASE ../database/phreeqc.dat
	TITLE Example 7.--Organic decomposition with fixed-pressure and
	                  fixed-volume gas phases
	SELECTED_OUTPUT 101
	    file                 ex7_T_P_101.sel
	USER_PUNCH 101
	    headings Mu SC
	    start
	10 PUNCH STR_F$(MU, 20, 12)
	20 PUNCH STR_F$(SC, 20, 10)
	    end
	SOLUTION_MASTER_SPECIES
	N(-3)    NH4+           0.0     N
	SOLUTION_SPECIES
	NH4+ = NH3 + H+
	        log_k           -9.252
	        delta_h 12.48   kcal
	        analytical_expression    0.6322    -0.001225     -2835.76
	NO3- + 10 H+ + 8 e- = NH4+ + 3 H2O
	        log_k           119.077
	        delta_h -187.055        kcal
	        gamma    2.5000    0.0000
	PHASES
	NH3(g)
	        NH3 = NH3
	        log_k           1.770
	        delta_h -8.170  kcal
	Ntg(g)
		Ntg = Ntg
		analytical_expression -58.453 1.81800e-3  3199  17.909 -27460
		t_c  126.2 
	 p_c   33.50 
	 omega 0.039
	SOLUTION 1
	EQUILIBRIUM_PHASES 1
	        Calcite
	        CO2(g)  -1.5
	SAVE solution 1
	END
-----
TITLE
-----

 Example 7.--Organic decomposition with fixed-pressure and
                  fixed-volume gas phases

-------------------------------------------
Beginning of initial solution calculations.
-------------------------------------------

Initial solution 1.	

-----------------------------Solution composition------------------------------

	Elements           Molality       Moles

	Pure water     

----------------------------Description of solution----------------------------

                                       pH  =   7.000    
                                       pe  =   4.000    
      Specific Conductance (µS/cm,  25°C)  = 0
                          Density (g/cm³)  =   0.99704
                               Volume (L)  =   1.00297
                        Activity of water  =   1.000
                 Ionic strength (mol/kgw)  =   1.007e-07
                       Mass of water (kg)  =   1.000e+00
                 Total alkalinity (eq/kg)  =   1.217e-09
                         Temperature (°C)  =  25.00
                  Electrical balance (eq)  =  -1.217e-09
 Percent error, 100*(Cat-|An|)/(Cat+|An|)  =  -0.60
                               Iterations  =   0
                                  Total H  = 1.110124e+02
                                  Total O  = 5.550622e+01

----------------------------Distribution of species----------------------------

                                               Log       Log       Log    mole V
   Species          Molality    Activity  Molality  Activity     Gamma   cm³/mol

   OH-             1.013e-07   1.012e-07    -6.995    -6.995    -0.000     -4.14
   H+              1.001e-07   1.000e-07    -7.000    -7.000    -0.000      0.00
   H2O             5.551e+01   1.000e+00     1.744     0.000     0.000     18.07
H(0)          1.416e-25
   H2              7.079e-26   7.079e-26   -25.150   -25.150     0.000     28.61
O(0)          0.000e+00
   O2              0.000e+00   0.000e+00   -42.080   -42.080     0.000     30.40

------------------------------Saturation indices-------------------------------

  Phase               SI** log IAP   log K(298 K,   1 atm)

  H2(g)           -22.05    -25.15   -3.10  H2
  H2O(g)           -1.50      0.00    1.50  H2O
  O2(g)           -39.19    -42.08   -2.89  O2

**For a gas, SI = log10(fugacity). Fugacity = pressure * phi / 1 atm.
  For ideal gases, phi = 1.

-----------------------------------------
Beginning of batch-reaction calculations.
-----------------------------------------

Reaction step 1.

Using solution 1.	
Using pure phase assemblage 1.	

-------------------------------Phase assemblage--------------------------------

                                                      Moles in assemblage
Phase               SI  log IAP  log K(T, P)   Initial       Final       Delta

CO2(g)           -1.50    -2.97     -1.47    1.000e+01   9.996e+00  -3.567e-03
Calcite           0.00    -8.48     -8.48    1.000e+01   9.997e+00  -2.502e-03

-----------------------------Solution composition------------------------------

	Elements           Molality       Moles

	C                 6.069e-03   6.069e-03
	Ca                2.502e-03   2.502e-03

----------------------------Description of solution----------------------------

                                       pH  =   6.971      Charge balance
                                       pe  =  -1.250      Adjusted to redox equilibrium
      Specific Conductance (µS/cm,  25°C)  = 444
                          Density (g/cm³)  =   0.99738
                               Volume (L)  =   1.00304
                        Activity of water  =   1.000
                 Ionic strength (mol/kgw)  =   7.282e-03
                       Mass of water (kg)  =   1.000e+00
                 Total alkalinity (eq/kg)  =   5.004e-03
                       Total CO2 (mol/kg)  =   6.069e-03
                         Temperature (°C)  =  25.00
                  Electrical balance (eq)  =  -1.216e-09
 Percent error, 100*(Cat-|An|)/(Cat+|An|)  =  -0.00
                               Iterations  =  17
                                  Total H  = 1.110124e+02
                                  Total O  = 5.552086e+01

----------------------------Distribution of species----------------------------

                                               Log       Log       Log    mole V
   Species          Molality    Activity  Molality  Activity     Gamma   cm³/mol

   H+              1.158e-07   1.069e-07    -6.936    -6.971    -0.035      0.00
   OH-             1.037e-07   9.466e-08    -6.984    -7.024    -0.040     -4.05
   H2O             5.551e+01   9.999e-01     1.744    -0.000     0.000     18.07
C(-4)         4.466e-25
   CH4             4.466e-25   4.473e-25   -24.350   -24.349     0.001     35.46
C(4)          6.069e-03
   HCO3-           4.882e-03   4.475e-03    -2.311    -2.349    -0.038     24.75
   CO2             1.074e-03   1.076e-03    -2.969    -2.968     0.001     34.43
   CaHCO3+         1.050e-04   9.632e-05    -3.979    -4.016    -0.037      9.71
   CaCO3           5.554e-06   5.563e-06    -5.255    -5.255     0.001    -14.60
   CO3-2           2.780e-06   1.963e-06    -5.556    -5.707    -0.151     -5.07
   (CO2)2          2.121e-08   2.125e-08    -7.673    -7.673     0.001     68.87
Ca            2.502e-03
   Ca+2            2.391e-03   1.687e-03    -2.621    -2.773    -0.151    -17.97
   CaHCO3+         1.050e-04   9.632e-05    -3.979    -4.016    -0.037      9.71
   CaCO3           5.554e-06   5.563e-06    -5.255    -5.255     0.001    -14.60
   CaOH+           2.864e-09   2.618e-09    -8.543    -8.582    -0.039     (0)  
H(0)          5.098e-15
   H2              2.549e-15   2.553e-15   -14.594   -14.593     0.001     28.61
O(0)          0.000e+00
   O2              0.000e+00   0.000e+00   -63.195   -63.194     0.001     30.40

------------------------------Saturation indices-------------------------------

  Phase               SI** log IAP   log K(298 K,   1 atm)

  Aragonite        -0.14     -8.48   -8.34  CaCO3
  Calcite           0.00     -8.48   -8.48  CaCO3
  CH4(g)          -21.55    -24.35   -2.80  CH4
  CO2(g)           -1.50     -2.97   -1.47  CO2	 Pressure   0.0 atm, phi 1.000
  H2(g)           -11.49    -14.59   -3.10  H2
  H2O(g)           -1.50     -0.00    1.50  H2O
  O2(g)           -60.30    -63.19   -2.89  O2

**For a gas, SI = log10(fugacity). Fugacity = pressure * phi / 1 atm.
  For ideal gases, phi = 1.

------------------
End of simulation.
------------------

------------------------------------
Reading input data for simulation 2.
------------------------------------

	USE solution 1
	GAS_PHASE 1 Fixed-pressure gas phase
	        fixed_pressure
	        pressure       1.1
	        CO2(g)          0
	        CH4(g)          0
	        N2(g)           0
	        H2O(g)          0
	REACTION 1
	        CH2O(NH3)0.07     1.0
	        1. 2. 3. 4. 8. 16. 32 64. 125. 250. 500. 1000. mmol
	REACTION_TEMPERATURE
	50
	REACTION_PRESSURE
	50
	END
-----------------------------------------
Beginning of batch-reaction calculations.
-----------------------------------------

Reaction step 1.

Using solution 1.	Solution after simulation 1.
Using gas phase 1.	Fixed-pressure gas phase
Using temperature 1.	
Using pressure 1.	
Using reaction 1.	

Reaction 1.	

	  1.000e-03 moles of the following reaction have been added:

	                 Relative
	Reactant            moles

	CH2O(NH3)0.07        1.00000

	                 Relative
	Element             moles
	C                    1.00000
	H                    2.21000
	N                    0.07000
	O                    1.00000

-----------------------------------Gas phase-----------------------------------

Total pressure: 50.00      atmospheres          (Peng-Robinson calculation)
    Gas volume:   1.20e+00 liters
  Molar volume:   2.16e-02 liters/mole
   P * Vm / RT:  0.04074  (Compressibility Factor Z) 

                                                        Moles in gas
                                            ----------------------------------
Component         log P           P    phi     Initial       Final       Delta

CH4(g)            -3.47   3.405e-041064699.995   0.000e+00   3.777e-04   3.777e-04
CO2(g)            -2.77   1.699e-032770.420   0.000e+00   1.884e-03   1.884e-03
H2O(g)             1.70   5.000e+01  0.002   0.000e+00   5.546e+01   5.546e+01
N2(g)             -4.65   2.245e-051493231.965   0.000e+00   2.491e-05   2.491e-05

-----------------------------Solution composition------------------------------

	Elements           Molality       Moles

	C                 6.041e+00   4.807e-03
	Ca                3.144e+00   2.502e-03
	N                 2.537e-02   2.019e-05

----------------------------Description of solution----------------------------

                                       pH  =   7.606      Charge balance
                                       pe  =  -5.033      Adjusted to redox equilibrium
      Specific Conductance (µS/cm,  50°C)  = 99051
                          Density (g/cm³)  =   1.31362
                               Volume (L)  =   0.00090
                        Activity of water  =   0.894
                 Ionic strength (mol/kgw)  =   3.072e+00
                       Mass of water (kg)  =   7.957e-04
                 Total alkalinity (eq/kg)  =   6.297e+00
                       Total CO2 (mol/kg)  =   5.858e+00
                         Temperature (°C)  =  50.00
                           Pressure (atm)  = 50.00
                  Electrical balance (eq)  =  -1.216e-09
 Percent error, 100*(Cat-|An|)/(Cat+|An|)  =  -0.00
                               Iterations  =  86
                                  Total H  = 9.319019e-02
                                  Total O  = 5.811635e-02

----------------------------Distribution of species----------------------------

                                               Log       Log       Log    mole V
   Species          Molality    Activity  Molality  Activity     Gamma   cm³/mol

   OH-             4.133e-06   2.037e-06    -5.384    -5.691    -0.307      1.52
   H+              3.497e-08   2.478e-08    -7.456    -7.606    -0.150      0.00
   H2O             5.551e+01   8.943e-01     1.744    -0.049     0.000     18.20
C(-4)         1.832e-01
   CH4             1.832e-01   3.716e-01    -0.737    -0.430     0.307     37.36
C(4)          5.858e+00
   HCO3-           2.795e+00   1.664e+00     0.446     0.221    -0.225     33.43
   CaHCO3+         2.538e+00   1.573e+00     0.405     0.197    -0.208     10.86
   CaCO3           4.436e-01   8.999e-01    -0.353    -0.046     0.307    -14.21
   CO2             4.228e-02   8.576e-02    -1.374    -1.067     0.307     35.61
   CO3-2           3.801e-02   4.773e-03    -1.420    -2.321    -0.901      0.87
   (CO2)2          1.361e-04   2.761e-04    -3.866    -3.559     0.307     71.21
Ca            3.144e+00
   CaHCO3+         2.538e+00   1.573e+00     0.405     0.197    -0.208     10.86
   CaCO3           4.436e-01   8.999e-01    -0.353    -0.046     0.307    -14.21
   Ca+2            1.621e-01   5.779e-02    -0.790    -1.238    -0.448    -14.62
   CaOH+           2.456e-07   3.484e-07    -6.610    -6.458     0.152     (0)  
H(0)          3.771e-09
   H2              1.885e-09   3.824e-09    -8.725    -8.417     0.307     28.56
N(-3)         9.242e-03
   NH4+            9.026e-03   3.760e-03    -2.045    -2.425    -0.380     (0)  
   NH3             2.162e-04   4.386e-04    -3.665    -3.358     0.307     (0)  
N(0)          1.613e-02
   N2              8.065e-03   1.636e-02    -2.093    -1.786     0.307     29.29
N(3)          0.000e+00
   NO2-            0.000e+00   0.000e+00   -53.910   -54.250    -0.340     27.65
N(5)          0.000e+00
   NO3-            0.000e+00   0.000e+00   -74.892   -75.231    -0.340     32.45
O(0)          0.000e+00
   O2              0.000e+00   0.000e+00   -68.548   -68.240     0.307     31.81

------------------------------Saturation indices-------------------------------

  Phase               SI** log IAP   log K(323 K,  50 atm)

  Aragonite         4.94     -3.56   -8.50  CaCO3
  Calcite           5.14     -3.56   -8.70  CaCO3
  CH4(g)            2.56     -0.43   -2.99  CH4	 Pressure   0.0 atm, phi 1064699.995
  CO2(g)            0.67     -1.07   -1.74  CO2	 Pressure   0.0 atm, phi 2770.420
  H2(g)            -5.26     -8.42   -3.16  H2
  H2O(g)           -0.95     -0.05    0.90  H2O	 Pressure  50.0 atm, phi 0.002
  N2(g)             1.53     -1.79   -3.31  N2	 Pressure   0.0 atm, phi 1493231.965
  NH3(g)           -4.66     -3.36    1.31  NH3
  O2(g)           -65.18    -68.24   -3.06  O2

**For a gas, SI = log10(fugacity). Fugacity = pressure * phi / 1 atm.
  For ideal gases, phi = 1.

Reaction step 2.

Using solution 1.	Solution after simulation 1.
Using gas phase 1.	Fixed-pressure gas phase
Using temperature 1.	
Using pressure 1.	
Using reaction 1.	

Reaction 1.	

	  2.000e-03 moles of the following reaction have been added:

	                 Relative
	Reactant            moles

	CH2O(NH3)0.07        1.00000

	                 Relative
	Element             moles
	C                    1.00000
	H                    2.21000
	N                    0.07000
	O                    1.00000

-----------------------------------Gas phase-----------------------------------

Total pressure: 50.00      atmospheres          (Peng-Robinson calculation)
    Gas volume:   1.20e+00 liters
  Molar volume:   2.16e-02 liters/mole
   P * Vm / RT:  0.04074  (Compressibility Factor Z) 

                                                        Moles in gas
                                            ----------------------------------
Component         log P           P    phi     Initial       Final       Delta

CH4(g)            -3.18   6.681e-041064205.788   0.000e+00   7.411e-04   7.411e-04
CO2(g)            -2.69   2.059e-032769.432   0.000e+00   2.284e-03   2.284e-03
H2O(g)             1.70   5.000e+01  0.002   0.000e+00   5.546e+01   5.546e+01
N2(g)             -4.36   4.390e-051492590.329   0.000e+00   4.869e-05   4.869e-05

-----------------------------Solution composition------------------------------

	Elements           Molality       Moles

	C                 6.023e+00   5.044e-03
	Ca                2.987e+00   2.502e-03
	N                 5.088e-02   4.261e-05

----------------------------Description of solution----------------------------

                                       pH  =   7.516      Charge balance
                                       pe  =  -4.970      Adjusted to redox equilibrium
      Specific Conductance (µS/cm,  50°C)  = 98084
                          Density (g/cm³)  =   1.29336
                               Volume (L)  =   0.00095
                        Activity of water  =   0.894
                 Ionic strength (mol/kgw)  =   3.006e+00
                       Mass of water (kg)  =   8.375e-04
                 Total alkalinity (eq/kg)  =   5.993e+00
                       Total CO2 (mol/kg)  =   5.658e+00
                         Temperature (°C)  =  50.00
                           Pressure (atm)  = 50.00
                  Electrical balance (eq)  =  -1.216e-09
 Percent error, 100*(Cat-|An|)/(Cat+|An|)  =  -0.00
                               Iterations  =  85
                                  Total H  = 9.862478e-02
                                  Total O  = 6.065679e-02

----------------------------Distribution of species----------------------------

                                               Log       Log       Log    mole V
   Species          Molality    Activity  Molality  Activity     Gamma   cm³/mol

   OH-             3.354e-06   1.657e-06    -5.474    -5.781    -0.306      1.42
   H+              4.297e-08   3.047e-08    -7.367    -7.516    -0.149      0.00
   H2O             5.551e+01   8.942e-01     1.744    -0.049     0.000     18.20
C(-4)         3.648e-01
   CH4             3.648e-01   7.287e-01    -0.438    -0.137     0.301     37.36
C(4)          5.658e+00
   HCO3-           2.752e+00   1.640e+00     0.440     0.215    -0.225     33.28
   CaHCO3+         2.467e+00   1.531e+00     0.392     0.185    -0.207     10.86
   CaCO3           3.566e-01   7.124e-01    -0.448    -0.147     0.301    -14.21
   CO2             5.201e-02   1.039e-01    -1.284    -0.983     0.301     35.61
   CO3-2           3.030e-02   3.826e-03    -1.519    -2.417    -0.899      0.83
   (CO2)2          2.029e-04   4.053e-04    -3.693    -3.392     0.301     71.21
Ca            2.987e+00
   CaHCO3+         2.467e+00   1.531e+00     0.392     0.185    -0.207     10.86
   CaCO3           3.566e-01   7.124e-01    -0.448    -0.147     0.301    -14.21
   Ca+2            1.632e-01   5.708e-02    -0.787    -1.244    -0.456    -14.65
   CaOH+           2.015e-07   2.798e-07    -6.696    -6.553     0.143     (0)  
H(0)          4.318e-09
   H2              2.159e-09   4.313e-09    -8.666    -8.365     0.301     28.56
N(-3)         1.888e-02
   NH4+            1.851e-02   7.742e-03    -1.733    -2.111    -0.379     (0)  
   NH3             3.677e-04   7.345e-04    -3.435    -3.134     0.301     (0)  
N(0)          3.200e-02
   N2              1.600e-02   3.197e-02    -1.796    -1.495     0.301     29.29
N(3)          0.000e+00
   NO2-            0.000e+00   0.000e+00   -53.934   -54.273    -0.339     27.62
N(5)          0.000e+00
   NO3-            0.000e+00   0.000e+00   -74.968   -75.306    -0.339     32.44
O(0)          0.000e+00
   O2              0.000e+00   0.000e+00   -68.646   -68.345     0.301     31.81

------------------------------Saturation indices-------------------------------

  Phase               SI** log IAP   log K(323 K,  50 atm)

  Aragonite         4.84     -3.66   -8.50  CaCO3
  Calcite           5.03     -3.66   -8.70  CaCO3
  CH4(g)            2.85     -0.14   -2.99  CH4	 Pressure   0.0 atm, phi 1064205.788
  CO2(g)            0.76     -0.98   -1.74  CO2	 Pressure   0.0 atm, phi 2769.432
  H2(g)            -5.21     -8.37   -3.16  H2
  H2O(g)           -0.95     -0.05    0.90  H2O	 Pressure  50.0 atm, phi 0.002
  N2(g)             1.82     -1.50   -3.31  N2	 Pressure   0.0 atm, phi 1492590.329
  NH3(g)           -4.44     -3.13    1.31  NH3
  O2(g)           -65.29    -68.34   -3.06  O2

**For a gas, SI = log10(fugacity). Fugacity = pressure * phi / 1 atm.
  For ideal gases, phi = 1.

Reaction step 3.

Using solution 1.	Solution after simulation 1.
Using gas phase 1.	Fixed-pressure gas phase
Using temperature 1.	
Using pressure 1.	
Using reaction 1.	

Reaction 1.	

	  3.000e-03 moles of the following reaction have been added:

	                 Relative
	Reactant            moles

	CH2O(NH3)0.07        1.00000

	                 Relative
	Element             moles
	C                    1.00000
	H                    2.21000
	N                    0.07000
	O                    1.00000

-----------------------------------Gas phase-----------------------------------

Total pressure: 50.00      atmospheres          (Peng-Robinson calculation)
    Gas volume:   1.20e+00 liters
  Molar volume:   2.16e-02 liters/mole
   P * Vm / RT:  0.04074  (Compressibility Factor Z) 

                                                        Moles in gas
                                            ----------------------------------
Component         log P           P    phi     Initial       Final       Delta

CH4(g)            -3.01   9.820e-041063717.357   0.000e+00   1.089e-03   1.089e-03
CO2(g)            -2.61   2.429e-032768.457   0.000e+00   2.694e-03   2.694e-03
H2O(g)             1.70   5.000e+01  0.002   0.000e+00   5.546e+01   5.546e+01
N2(g)             -4.19   6.408e-051491956.317   0.000e+00   7.108e-05   7.108e-05

-----------------------------Solution composition------------------------------

	Elements           Molality       Moles

	C                 6.004e+00   5.286e-03
	Ca                2.842e+00   2.502e-03
	N                 7.706e-02   6.784e-05

----------------------------Description of solution----------------------------

                                       pH  =   7.436      Charge balance
                                       pe  =  -4.902      Adjusted to redox equilibrium
      Specific Conductance (µS/cm,  50°C)  = 96941
                          Density (g/cm³)  =   1.27476
                               Volume (L)  =   0.00101
                        Activity of water  =   0.894
                 Ionic strength (mol/kgw)  =   2.933e+00
                       Mass of water (kg)  =   8.803e-04
                 Total alkalinity (eq/kg)  =   5.713e+00
                       Total CO2 (mol/kg)  =   5.459e+00
                         Temperature (°C)  =  50.00
                           Pressure (atm)  = 50.00
                  Electrical balance (eq)  =  -1.216e-09
 Percent error, 100*(Cat-|An|)/(Cat+|An|)  =  -0.00
                               Iterations  =  85
                                  Total H  = 1.042199e-01
                                  Total O  = 6.322468e-02

----------------------------Distribution of species----------------------------

                                               Log       Log       Log    mole V
   Species          Molality    Activity  Molality  Activity     Gamma   cm³/mol

   OH-             2.781e-06   1.378e-06    -5.556    -5.861    -0.305      1.32
   H+              5.165e-08   3.665e-08    -7.287    -7.436    -0.149      0.00
   H2O             5.551e+01   8.942e-01     1.744    -0.049     0.000     18.20
C(-4)         5.450e-01
   CH4             5.450e-01   1.071e+00    -0.264     0.030     0.293     37.36
C(4)          5.459e+00
   HCO3-           2.694e+00   1.609e+00     0.430     0.206    -0.224     33.12
   CaHCO3+         2.385e+00   1.482e+00     0.378     0.171    -0.207     10.86
   CaCO3           2.918e-01   5.733e-01    -0.535    -0.242     0.293    -14.21
   CO2             6.238e-02   1.225e-01    -1.205    -0.912     0.293     35.61
   CO3-2           2.455e-02   3.119e-03    -1.610    -2.506    -0.896      0.79
   (CO2)2          2.869e-04   5.637e-04    -3.542    -3.249     0.293     71.21
Ca            2.842e+00
   CaHCO3+         2.385e+00   1.482e+00     0.378     0.171    -0.207     10.86
   CaCO3           2.918e-01   5.733e-01    -0.535    -0.242     0.293    -14.21
   Ca+2            1.645e-01   5.636e-02    -0.784    -1.249    -0.465    -14.69
   CaOH+           1.693e-07   2.297e-07    -6.771    -6.639     0.132     (0)  
H(0)          4.639e-09
   H2              2.320e-09   4.557e-09    -8.635    -8.341     0.293     28.56
N(-3)         2.957e-02
   NH4+            2.908e-02   1.222e-02    -1.536    -1.913    -0.377     (0)  
   NH3             4.904e-04   9.635e-04    -3.309    -3.016     0.293     (0)  
N(0)          4.749e-02
   N2              2.375e-02   4.665e-02    -1.624    -1.331     0.293     29.29
N(3)          0.000e+00
   NO2-            0.000e+00   0.000e+00   -53.969   -54.307    -0.337     27.60
N(5)          0.000e+00
   NO3-            0.000e+00   0.000e+00   -75.027   -75.364    -0.337     32.43
O(0)          0.000e+00
   O2              0.000e+00   0.000e+00   -68.686   -68.393     0.293     31.81

------------------------------Saturation indices-------------------------------

  Phase               SI** log IAP   log K(323 K,  50 atm)

  Aragonite         4.74     -3.76   -8.50  CaCO3
  Calcite           4.94     -3.76   -8.70  CaCO3
  CH4(g)            3.02      0.03   -2.99  CH4	 Pressure   0.0 atm, phi 1063717.357
  CO2(g)            0.83     -0.91   -1.74  CO2	 Pressure   0.0 atm, phi 2768.457
  H2(g)            -5.18     -8.34   -3.16  H2
  H2O(g)           -0.95     -0.05    0.90  H2O	 Pressure  50.0 atm, phi 0.002
  N2(g)             1.98     -1.33   -3.31  N2	 Pressure   0.0 atm, phi 1491956.317
  NH3(g)           -4.32     -3.02    1.31  NH3
  O2(g)           -65.34    -68.39   -3.06  O2

**For a gas, SI = log10(fugacity). Fugacity = pressure * phi / 1 atm.
  For ideal gases, phi = 1.

Reaction step 4.

Using solution 1.	Solution after simulation 1.
Using gas phase 1.	Fixed-pressure gas phase
Using temperature 1.	
Using pressure 1.	
Using reaction 1.	

Reaction 1.	

	  4.000e-03 moles of the following reaction have been added:

	                 Relative
	Reactant            moles

	CH2O(NH3)0.07        1.00000

	                 Relative
	Element             moles
	C                    1.00000
	H                    2.21000
	N                    0.07000
	O                    1.00000

-----------------------------------Gas phase-----------------------------------

Total pressure: 50.00      atmospheres          (Peng-Robinson calculation)
    Gas volume:   1.20e+00 liters
  Molar volume:   2.16e-02 liters/mole
   P * Vm / RT:  0.04074  (Compressibility Factor Z) 

                                                        Moles in gas
                                            ----------------------------------
Component         log P           P    phi     Initial       Final       Delta

CH4(g)            -2.89   1.281e-031063237.777   0.000e+00   1.421e-03   1.421e-03
CO2(g)            -2.55   2.805e-032767.499   0.000e+00   3.112e-03   3.112e-03
H2O(g)             1.70   5.000e+01  0.002   0.000e+00   5.545e+01   5.545e+01
N2(g)             -4.08   8.291e-051491333.905   0.000e+00   9.196e-05   9.196e-05

-----------------------------Solution composition------------------------------

	Elements           Molality       Moles

	C                 5.984e+00   5.536e-03
	Ca                2.704e+00   2.502e-03
	N                 1.039e-01   9.607e-05

----------------------------Description of solution----------------------------

                                       pH  =   7.363      Charge balance
                                       pe  =  -4.836      Adjusted to redox equilibrium
      Specific Conductance (µS/cm,  50°C)  = 95657
                          Density (g/cm³)  =   1.25729
                               Volume (L)  =   0.00106
                        Activity of water  =   0.894
                 Ionic strength (mol/kgw)  =   2.855e+00
                       Mass of water (kg)  =   9.251e-04
                 Total alkalinity (eq/kg)  =   5.450e+00
                       Total CO2 (mol/kg)  =   5.261e+00
                         Temperature (°C)  =  50.00
                           Pressure (atm)  = 50.00
                  Electrical balance (eq)  =  -1.216e-09
 Percent error, 100*(Cat-|An|)/(Cat+|An|)  =  -0.00
                               Iterations  =  85
                                  Total H  = 1.100848e-01
                                  Total O  = 6.588129e-02

----------------------------Distribution of species----------------------------

                                               Log       Log       Log    mole V
   Species          Molality    Activity  Molality  Activity     Gamma   cm³/mol

   OH-             2.346e-06   1.166e-06    -5.630    -5.933    -0.304      1.21
   H+              6.100e-08   4.332e-08    -7.215    -7.363    -0.149      0.00
   H2O             5.551e+01   8.942e-01     1.744    -0.049     0.000     18.20
C(-4)         7.236e-01
   CH4             7.236e-01   1.396e+00    -0.140     0.145     0.285     37.36
C(4)          5.261e+00
   HCO3-           2.628e+00   1.572e+00     0.420     0.196    -0.223     32.95
   CaHCO3+         2.296e+00   1.429e+00     0.361     0.155    -0.206     10.85
   CaCO3           2.423e-01   4.675e-01    -0.616    -0.330     0.285    -14.21
   CO2             7.332e-02   1.415e-01    -1.135    -0.849     0.285     35.61
   CO3-2           2.015e-02   2.577e-03    -1.696    -2.589    -0.893      0.74
   (CO2)2          3.894e-04   7.514e-04    -3.410    -3.124     0.285     71.21
Ca            2.704e+00
   CaHCO3+         2.296e+00   1.429e+00     0.361     0.155    -0.206     10.85
   CaCO3           2.423e-01   4.675e-01    -0.616    -0.330     0.285    -14.21
   Ca+2            1.659e-01   5.562e-02    -0.780    -1.255    -0.475    -14.73
   CaOH+           1.449e-07   1.918e-07    -6.839    -6.717     0.122     (0)  
H(0)          4.869e-09
   H2              2.435e-09   4.698e-09    -8.614    -8.328     0.285     28.56
N(-3)         4.131e-02
   NH4+            4.072e-02   1.719e-02    -1.390    -1.765    -0.375     (0)  
   NH3             5.944e-04   1.147e-03    -3.226    -2.940     0.285     (0)  
N(0)          6.254e-02
   N2              3.127e-02   6.033e-02    -1.505    -1.219     0.285     29.29
N(3)          0.000e+00
   NO2-            0.000e+00   0.000e+00   -54.008   -54.343    -0.335     27.57
N(5)          0.000e+00
   NO3-            0.000e+00   0.000e+00   -75.079   -75.414    -0.335     32.42
O(0)          0.000e+00
   O2              0.000e+00   0.000e+00   -68.705   -68.419     0.285     31.81

------------------------------Saturation indices-------------------------------

  Phase               SI** log IAP   log K(323 K,  50 atm)

  Aragonite         4.65     -3.84   -8.50  CaCO3
  Calcite           4.85     -3.84   -8.70  CaCO3
  CH4(g)            3.13      0.14   -2.99  CH4	 Pressure   0.0 atm, phi 1063237.777
  CO2(g)            0.89     -0.85   -1.74  CO2	 Pressure   0.0 atm, phi 2767.499
  H2(g)            -5.17     -8.33   -3.16  H2
  H2O(g)           -0.95     -0.05    0.90  H2O	 Pressure  50.0 atm, phi 0.002
  N2(g)             2.09     -1.22   -3.31  N2	 Pressure   0.0 atm, phi 1491333.905
  NH3(g)           -4.25     -2.94    1.31  NH3
  O2(g)           -65.36    -68.42   -3.06  O2

**For a gas, SI = log10(fugacity). Fugacity = pressure * phi / 1 atm.
  For ideal gases, phi = 1.

Reaction step 5.

Using solution 1.	Solution after simulation 1.
Using gas phase 1.	Fixed-pressure gas phase
Using temperature 1.	
Using pressure 1.	
Using reaction 1.	

Reaction 1.	

	  8.000e-03 moles of the following reaction have been added:

	                 Relative
	Reactant            moles

	CH2O(NH3)0.07        1.00000

	                 Relative
	Element             moles
	C                    1.00000
	H                    2.21000
	N                    0.07000
	O                    1.00000

-----------------------------------Gas phase-----------------------------------

Total pressure: 50.00      atmospheres          (Peng-Robinson calculation)
    Gas volume:   1.20e+00 liters
  Molar volume:   2.16e-02 liters/mole
   P * Vm / RT:  0.04074  (Compressibility Factor Z) 

                                                        Moles in gas
                                            ----------------------------------
Component         log P           P    phi     Initial       Final       Delta

CH4(g)            -2.64   2.317e-031061448.238   0.000e+00   2.569e-03   2.569e-03
CO2(g)            -2.36   4.330e-032763.930   0.000e+00   4.802e-03   4.802e-03
H2O(g)             1.70   4.999e+01  0.002   0.000e+00   5.544e+01   5.544e+01
N2(g)             -3.84   1.433e-041489012.439   0.000e+00   1.589e-04   1.589e-04

-----------------------------Solution composition------------------------------

	Elements           Molality       Moles

	C                 5.900e+00   6.698e-03
	Ca                2.204e+00   2.502e-03
	N                 2.134e-01   2.422e-04

----------------------------Description of solution----------------------------

                                       pH  =   7.125      Charge balance
                                       pe  =  -4.606      Adjusted to redox equilibrium
      Specific Conductance (µS/cm,  50°C)  = 89567
                          Density (g/cm³)  =   1.19497
                               Volume (L)  =   0.00132
                        Activity of water  =   0.894
                 Ionic strength (mol/kgw)  =   2.525e+00
                       Mass of water (kg)  =   1.135e-03
                 Total alkalinity (eq/kg)  =   4.505e+00
                       Total CO2 (mol/kg)  =   4.491e+00
                         Temperature (°C)  =  50.00
                           Pressure (atm)  = 50.00
                  Electrical balance (eq)  =  -1.216e-09
 Percent error, 100*(Cat-|An|)/(Cat+|An|)  =  -0.00
                               Iterations  =  84
                                  Total H  = 1.376593e-01
                                  Total O  = 7.816365e-02

----------------------------Distribution of species----------------------------

                                               Log       Log       Log    mole V
   Species          Molality    Activity  Molality  Activity     Gamma   cm³/mol

   OH-             1.336e-06   6.739e-07    -5.874    -6.171    -0.297      0.73
   H+              1.053e-07   7.501e-08    -6.978    -7.125    -0.147      0.00
   H2O             5.551e+01   8.942e-01     1.744    -0.049     0.000     18.20
C(-4)         1.409e+00
   CH4             1.409e+00   2.520e+00     0.149     0.401     0.252     37.36
C(4)          4.491e+00
   HCO3-           2.324e+00   1.401e+00     0.366     0.146    -0.220     32.23
   CaHCO3+         1.907e+00   1.195e+00     0.280     0.077    -0.203     10.85
   CaCO3           1.262e-01   2.258e-01    -0.899    -0.646     0.252    -14.21
   CO2             1.219e-01   2.181e-01    -0.914    -0.661     0.252     35.61
   CO3-2           1.004e-02   1.325e-03    -1.998    -2.878    -0.879      0.53
   (CO2)2          9.983e-04   1.785e-03    -3.001    -2.748     0.252     71.21
Ca            2.204e+00
   CaHCO3+         1.907e+00   1.195e+00     0.280     0.077    -0.203     10.85
   Ca+2            1.706e-01   5.226e-02    -0.768    -1.282    -0.514    -14.90
   CaCO3           1.262e-01   2.258e-01    -0.899    -0.646     0.252    -14.21
   CaOH+           8.721e-08   1.040e-07    -7.059    -6.983     0.077     (0)  
H(0)          5.465e-09
   H2              2.732e-09   4.887e-09    -8.563    -8.311     0.252     28.56
N(-3)         9.700e-02
   NH4+            9.610e-02   4.147e-02    -1.017    -1.382    -0.365     (0)  
   NH3             8.936e-04   1.598e-03    -3.049    -2.796     0.252     (0)  
N(0)          1.164e-01
   N2              5.820e-02   1.041e-01    -1.235    -0.983     0.252     29.29
N(3)          0.000e+00
   NO2-            0.000e+00   0.000e+00   -54.161   -54.489    -0.328     27.45
N(5)          0.000e+00
   NO3-            0.000e+00   0.000e+00   -75.249   -75.577    -0.328     32.37
O(0)          0.000e+00
   O2              0.000e+00   0.000e+00   -68.706   -68.453     0.252     31.81

------------------------------Saturation indices-------------------------------

  Phase               SI** log IAP   log K(323 K,  50 atm)

  Aragonite         4.34     -4.16   -8.50  CaCO3
  Calcite           4.54     -4.16   -8.69  CaCO3
  CH4(g)            3.39      0.40   -2.99  CH4	 Pressure   0.0 atm, phi 1061448.238
  CO2(g)            1.08     -0.66   -1.74  CO2	 Pressure   0.0 atm, phi 2763.930
  H2(g)            -5.15     -8.31   -3.16  H2
  H2O(g)           -0.95     -0.05    0.90  H2O	 Pressure  50.0 atm, phi 0.002
  N2(g)             2.33     -0.98   -3.31  N2	 Pressure   0.0 atm, phi 1489012.439
  NH3(g)           -4.10     -2.80    1.31  NH3
  O2(g)           -65.40    -68.45   -3.06  O2

**For a gas, SI = log10(fugacity). Fugacity = pressure * phi / 1 atm.
  For ideal gases, phi = 1.

Reaction step 6.

Using solution 1.	Solution after simulation 1.
Using gas phase 1.	Fixed-pressure gas phase
Using temperature 1.	
Using pressure 1.	
Using reaction 1.	

Reaction 1.	

	  1.600e-02 moles of the following reaction have been added:

	                 Relative
	Reactant            moles

	CH2O(NH3)0.07        1.00000

	                 Relative
	Element             moles
	C                    1.00000
	H                    2.21000
	N                    0.07000
	O                    1.00000

-----------------------------------Gas phase-----------------------------------

Total pressure: 50.00      atmospheres          (Peng-Robinson calculation)
    Gas volume:   1.20e+00 liters
  Molar volume:   2.16e-02 liters/mole
   P * Vm / RT:  0.04074  (Compressibility Factor Z) 

                                                        Moles in gas
                                            ----------------------------------
Component         log P           P    phi     Initial       Final       Delta

CH4(g)            -2.45   3.570e-031058633.233   0.000e+00   3.957e-03   3.957e-03
CO2(g)            -2.14   7.278e-032758.330   0.000e+00   8.067e-03   8.067e-03
H2O(g)             1.70   4.999e+01  0.002   0.000e+00   5.541e+01   5.541e+01
N2(g)             -3.72   1.908e-041485365.765   0.000e+00   2.115e-04   2.115e-04

-----------------------------Solution composition------------------------------

	Elements           Molality       Moles

	C                 5.756e+00   1.005e-02
	Ca                1.433e+00   2.502e-03
	N                 3.994e-01   6.971e-04

----------------------------Description of solution----------------------------

                                       pH  =   6.789      Charge balance
                                       pe  =  -4.265      Adjusted to redox equilibrium
      Specific Conductance (µS/cm,  50°C)  = 76096
                          Density (g/cm³)  =   1.10298
                               Volume (L)  =   0.00206
                        Activity of water  =   0.894
                 Ionic strength (mol/kgw)  =   1.946e+00
                       Mass of water (kg)  =   1.745e-03
                 Total alkalinity (eq/kg)  =   3.090e+00
                       Total CO2 (mol/kg)  =   3.282e+00
                         Temperature (°C)  =  50.00
                           Pressure (atm)  = 50.00
                  Electrical balance (eq)  =  -1.216e-09
 Percent error, 100*(Cat-|An|)/(Cat+|An|)  =  -0.00
                               Iterations  =  82
                                  Total H  = 2.177824e-01
                                  Total O  = 1.136296e-01

----------------------------Distribution of species----------------------------

                                               Log       Log       Log    mole V
   Species          Molality    Activity  Molality  Activity     Gamma   cm³/mol

   OH-             5.978e-07   3.113e-07    -6.223    -6.507    -0.283     -0.13
   H+              2.264e-07   1.626e-07    -6.645    -6.789    -0.144      0.00
   H2O             5.551e+01   8.941e-01     1.744    -0.049     0.000     18.20
C(-4)         2.474e+00
   CH4             2.474e+00   3.873e+00     0.393     0.588     0.195     37.36
C(4)          3.282e+00
   HCO3-           1.771e+00   1.086e+00     0.248     0.036    -0.212     30.94
   CaHCO3+         1.225e+00   7.788e-01     0.088    -0.109    -0.197     10.83
   CO2             2.337e-01   3.658e-01    -0.631    -0.437     0.195     35.61
   CaCO3           4.336e-02   6.788e-02    -1.363    -1.168     0.195    -14.21
   CO3-2           3.340e-03   4.733e-04    -2.476    -3.325    -0.849      0.06
   (CO2)2          3.210e-03   5.024e-03    -2.494    -2.299     0.195     71.21
Ca            1.433e+00
   CaHCO3+         1.225e+00   7.788e-01     0.088    -0.109    -0.197     10.83
   Ca+2            1.656e-01   4.407e-02    -0.781    -1.356    -0.575    -15.21
   CaCO3           4.336e-02   6.788e-02    -1.363    -1.168     0.195    -14.21
   CaOH+           4.036e-08   4.043e-08    -7.394    -7.393     0.001     (0)  
H(0)          6.108e-09
   H2              3.054e-09   4.781e-09    -8.515    -8.321     0.195     28.56
N(-3)         2.228e-01
   NH4+            2.216e-01   1.003e-01    -0.654    -0.999    -0.344     (0)  
   NH3             1.139e-03   1.782e-03    -2.944    -2.749     0.195     (0)  
N(0)          1.767e-01
   N2              8.833e-02   1.383e-01    -1.054    -0.859     0.195     29.29
N(3)          0.000e+00
   NO2-            0.000e+00   0.000e+00   -54.438   -54.749    -0.311     27.23
N(5)          0.000e+00
   NO3-            0.000e+00   0.000e+00   -75.517   -75.828    -0.311     32.26
O(0)          0.000e+00
   O2              0.000e+00   0.000e+00   -68.629   -68.434     0.195     31.81

------------------------------Saturation indices-------------------------------

  Phase               SI** log IAP   log K(323 K,  50 atm)

  Aragonite         3.82     -4.68   -8.50  CaCO3
  Calcite           4.01     -4.68   -8.69  CaCO3
  CH4(g)            3.58      0.59   -2.99  CH4	 Pressure   0.0 atm, phi 1058633.233
  CO2(g)            1.30     -0.44   -1.74  CO2	 Pressure   0.0 atm, phi 2758.330
  H2(g)            -5.16     -8.32   -3.16  H2
  H2O(g)           -0.95     -0.05    0.90  H2O	 Pressure  50.0 atm, phi 0.002
  N2(g)             2.45     -0.86   -3.31  N2	 Pressure   0.0 atm, phi 1485365.765
  NH3(g)           -4.06     -2.75    1.31  NH3
  O2(g)           -65.38    -68.43   -3.06  O2

**For a gas, SI = log10(fugacity). Fugacity = pressure * phi / 1 atm.
  For ideal gases, phi = 1.

Reaction step 7.

Using solution 1.	Solution after simulation 1.
Using gas phase 1.	Fixed-pressure gas phase
Using temperature 1.	
Using pressure 1.	
Using reaction 1.	

Reaction 1.	

	  3.200e-02 moles of the following reaction have been added:

	                 Relative
	Reactant            moles

	CH2O(NH3)0.07        1.00000

	                 Relative
	Element             moles
	C                    1.00000
	H                    2.21000
	N                    0.07000
	O                    1.00000

-----------------------------------Gas phase-----------------------------------

Total pressure: 50.00      atmospheres          (Peng-Robinson calculation)
    Gas volume:   1.20e+00 liters
  Molar volume:   2.16e-02 liters/mole
   P * Vm / RT:  0.04074  (Compressibility Factor Z) 

                                                        Moles in gas
                                            ----------------------------------
Component         log P           P    phi     Initial       Final       Delta

CH4(g)            -2.37   4.237e-031055002.733   0.000e+00   4.689e-03   4.689e-03
CO2(g)            -1.91   1.244e-022751.149   0.000e+00   1.377e-02   1.377e-02
H2O(g)             1.70   4.998e+01  0.002   0.000e+00   5.531e+01   5.531e+01
N2(g)             -3.82   1.515e-041480675.403   0.000e+00   1.677e-04   1.677e-04

-----------------------------Solution composition------------------------------

	Elements           Molality       Moles

	C                 5.651e+00   1.962e-02
	Ca                7.207e-01   2.502e-03
	N                 5.487e-01   1.905e-03

----------------------------Description of solution----------------------------

                                       pH  =   6.407      Charge balance
                                       pe  =  -3.863      Adjusted to redox equilibrium
      Specific Conductance (µS/cm,  50°C)  = 57523
                          Density (g/cm³)  =   1.02417
                               Volume (L)  =   0.00415
                        Activity of water  =   0.894
                 Ionic strength (mol/kgw)  =   1.353e+00
                       Mass of water (kg)  =   3.471e-03
                 Total alkalinity (eq/kg)  =   1.830e+00
                       Total CO2 (mol/kg)  =   2.296e+00
                         Temperature (°C)  =  50.00
                           Pressure (atm)  = 50.00
                  Electrical balance (eq)  =  -1.216e-09
 Percent error, 100*(Cat-|An|)/(Cat+|An|)  =  -0.00
                               Iterations  =  79
                                  Total H  = 4.436018e-01
                                  Total O  = 2.149276e-01

----------------------------Distribution of species----------------------------

                                               Log       Log       Log    mole V
   Species          Molality    Activity  Molality  Activity     Gamma   cm³/mol

   H+              5.388e-07   3.918e-07    -6.269    -6.407    -0.138      0.00
   OH-             2.374e-07   1.294e-07    -6.625    -6.888    -0.263     -1.05
   H2O             5.551e+01   8.940e-01     1.744    -0.049     0.000     18.20
C(-4)         3.355e+00
   CH4             3.355e+00   4.581e+00     0.526     0.661     0.135     37.36
C(4)          2.296e+00
   HCO3-           1.223e+00   7.706e-01     0.088    -0.113    -0.201     29.58
   CaHCO3+         5.834e-01   3.795e-01    -0.234    -0.421    -0.187     10.81
   CO2             4.567e-01   6.236e-01    -0.340    -0.205     0.135     35.61
   (CO2)2          1.069e-02   1.460e-02    -1.971    -1.836     0.135     71.21
   CaCO3           1.005e-02   1.373e-02    -1.998    -1.862     0.135    -14.21
   CO3-2           8.842e-04   1.392e-04    -3.053    -3.856    -0.803     -0.57
Ca            7.207e-01
   CaHCO3+         5.834e-01   3.795e-01    -0.234    -0.421    -0.187     10.81
   Ca+2            1.272e-01   3.037e-02    -0.895    -1.518    -0.622    -15.57
   CaCO3           1.005e-02   1.373e-02    -1.998    -1.862     0.135    -14.21
   CaOH+           1.359e-08   1.156e-08    -7.867    -7.937    -0.070     (0)  
H(0)          6.390e-09
   H2              3.195e-09   4.363e-09    -8.496    -8.360     0.135     28.56
N(-3)         3.884e-01
   NH4+            3.873e-01   1.874e-01    -0.412    -0.727    -0.315     (0)  
   NH3             1.013e-03   1.383e-03    -2.995    -2.859     0.135     (0)  
N(0)          1.603e-01
   N2              8.016e-02   1.095e-01    -1.096    -0.961     0.135     29.29
N(3)          0.000e+00
   NO2-            0.000e+00   0.000e+00   -54.835   -55.122    -0.287     26.95
N(5)          0.000e+00
   NO3-            0.000e+00   0.000e+00   -75.874   -76.161    -0.287     32.12
O(0)          0.000e+00
   O2              0.000e+00   0.000e+00   -68.490   -68.355     0.135     31.81

------------------------------Saturation indices-------------------------------

  Phase               SI** log IAP   log K(323 K,  50 atm)

  Aragonite         3.12     -5.37   -8.50  CaCO3
  Calcite           3.32     -5.37   -8.69  CaCO3
  CH4(g)            3.65      0.66   -2.99  CH4	 Pressure   0.0 atm, phi 1055002.733
  CO2(g)            1.53     -0.21   -1.74  CO2	 Pressure   0.0 atm, phi 2751.149
  H2(g)            -5.20     -8.36   -3.16  H2
  H2O(g)           -0.95     -0.05    0.90  H2O	 Pressure  50.0 atm, phi 0.002
  N2(g)             2.35     -0.96   -3.31  N2	 Pressure   0.0 atm, phi 1480675.403
  NH3(g)           -4.17     -2.86    1.31  NH3
  O2(g)           -65.30    -68.36   -3.06  O2

**For a gas, SI = log10(fugacity). Fugacity = pressure * phi / 1 atm.
  For ideal gases, phi = 1.

Reaction step 8.

Using solution 1.	Solution after simulation 1.
Using gas phase 1.	Fixed-pressure gas phase
Using temperature 1.	
Using pressure 1.	
Using reaction 1.	

Reaction 1.	

	  6.400e-02 moles of the following reaction have been added:

	                 Relative
	Reactant            moles

	CH2O(NH3)0.07        1.00000

	                 Relative
	Element             moles
	C                    1.00000
	H                    2.21000
	N                    0.07000
	O                    1.00000

-----------------------------------Gas phase-----------------------------------

Total pressure: 50.00      atmospheres          (Peng-Robinson calculation)
    Gas volume:   1.19e+00 liters
  Molar volume:   2.16e-02 liters/mole
   P * Vm / RT:  0.04075  (Compressibility Factor Z) 

                                                        Moles in gas
                                            ----------------------------------
Component         log P           P    phi     Initial       Final       Delta

CH4(g)            -2.37   4.240e-031050228.944   0.000e+00   4.673e-03   4.673e-03
CO2(g)            -1.69   2.041e-022741.739   0.000e+00   2.249e-02   2.249e-02
H2O(g)             1.70   4.998e+01  0.002   0.000e+00   5.508e+01   5.508e+01
N2(g)             -4.11   7.839e-051474517.288   0.000e+00   8.640e-05   8.640e-05

-----------------------------Solution composition------------------------------

	Elements           Molality       Moles

	C                 5.673e+00   4.290e-02
	Ca                3.308e-01   2.502e-03
	N                 5.695e-01   4.307e-03

----------------------------Description of solution----------------------------

                                       pH  =   6.063      Charge balance
                                       pe  =  -3.493      Adjusted to redox equilibrium
      Specific Conductance (µS/cm,  50°C)  = 42326
                          Density (g/cm³)  =   0.98673
                               Volume (L)  =   0.00912
                        Activity of water  =   0.894
                 Ionic strength (mol/kgw)  =   9.634e-01
                       Mass of water (kg)  =   7.563e-03
                 Total alkalinity (eq/kg)  =   1.141e+00
                       Total CO2 (mol/kg)  =   2.017e+00
                         Temperature (°C)  =  50.00
                           Pressure (atm)  = 50.00
                  Electrical balance (eq)  =  -1.216e-09
 Percent error, 100*(Cat-|An|)/(Cat+|An|)  =  -0.00
                               Iterations  =  76
                                  Total H  = 9.732123e-01
                                  Total O  = 4.588835e-01

----------------------------Distribution of species----------------------------

                                               Log       Log       Log    mole V
   Species          Molality    Activity  Molality  Activity     Gamma   cm³/mol

   H+              1.174e-06   8.645e-07    -5.930    -6.063    -0.133      0.00
   OH-             1.030e-07   5.871e-08    -6.987    -7.231    -0.244     -1.69
   H2O             5.551e+01   8.939e-01     1.744    -0.049     0.000     18.20
C(-4)         3.656e+00
   CH4             3.656e+00   4.564e+00     0.563     0.659     0.096     37.36
C(4)          2.017e+00
   HCO3-           8.846e-01   5.719e-01    -0.053    -0.243    -0.189     28.65
   CO2             8.168e-01   1.020e+00    -0.088     0.008     0.096     35.61
   CaHCO3+         2.506e-01   1.668e-01    -0.601    -0.778    -0.177     10.78
   (CO2)2          3.127e-02   3.903e-02    -1.505    -1.409     0.096     71.21
   CaCO3           2.190e-03   2.734e-03    -2.659    -2.563     0.096    -14.21
   CO3-2           2.677e-04   4.678e-05    -3.572    -4.330    -0.758     -1.12
Ca            3.308e-01
   CaHCO3+         2.506e-01   1.668e-01    -0.601    -0.778    -0.177     10.78
   Ca+2            7.799e-02   1.802e-02    -1.108    -1.744    -0.636    -15.85
   CaCO3           2.190e-03   2.734e-03    -2.659    -2.563     0.096    -14.21
   CaOH+           4.001e-09   3.106e-09    -8.398    -8.508    -0.110     (0)  
H(0)          6.175e-09
   H2              3.088e-09   3.854e-09    -8.510    -8.414     0.096     28.56
N(-3)         4.792e-01
   NH4+            4.785e-01   2.465e-01    -0.320    -0.608    -0.288     (0)  
   NH3             6.601e-04   8.241e-04    -3.180    -3.084     0.096     (0)  
N(0)          9.036e-02
   N2              4.518e-02   5.640e-02    -1.345    -1.249     0.096     29.29
N(3)          0.000e+00
   NO2-            0.000e+00   0.000e+00   -55.264   -55.529    -0.264     26.74
N(5)          0.000e+00
   NO3-            0.000e+00   0.000e+00   -76.250   -76.514    -0.264     31.99
O(0)          0.000e+00
   O2              0.000e+00   0.000e+00   -68.344   -68.248     0.096     31.81

------------------------------Saturation indices-------------------------------

  Phase               SI** log IAP   log K(323 K,  50 atm)

  Aragonite         2.42     -6.07   -8.49  CaCO3
  Calcite           2.62     -6.07   -8.69  CaCO3
  CH4(g)            3.65      0.66   -2.99  CH4	 Pressure   0.0 atm, phi 1050228.944
  CO2(g)            1.75      0.01   -1.74  CO2	 Pressure   0.0 atm, phi 2741.739
  H2(g)            -5.25     -8.41   -3.16  H2
  H2O(g)           -0.95     -0.05    0.90  H2O	 Pressure  50.0 atm, phi 0.002
  N2(g)             2.06     -1.25   -3.31  N2	 Pressure   0.0 atm, phi 1474517.288
  NH3(g)           -4.39     -3.08    1.31  NH3
  O2(g)           -65.19    -68.25   -3.06  O2

**For a gas, SI = log10(fugacity). Fugacity = pressure * phi / 1 atm.
  For ideal gases, phi = 1.

Reaction step 9.

Using solution 1.	Solution after simulation 1.
Using gas phase 1.	Fixed-pressure gas phase
Using temperature 1.	
Using pressure 1.	
Using reaction 1.	

Reaction 1.	

	  1.250e-01 moles of the following reaction have been added:

	                 Relative
	Reactant            moles

	CH2O(NH3)0.07        1.00000

	                 Relative
	Element             moles
	C                    1.00000
	H                    2.21000
	N                    0.07000
	O                    1.00000

-----------------------------------Gas phase-----------------------------------

Total pressure: 50.00      atmospheres          (Peng-Robinson calculation)
    Gas volume:   1.18e+00 liters
  Molar volume:   2.16e-02 liters/mole
   P * Vm / RT:  0.04075  (Compressibility Factor Z) 

                                                        Moles in gas
                                            ----------------------------------
Component         log P           P    phi     Initial       Final       Delta

CH4(g)            -2.40   3.956e-031044814.902   0.000e+00   4.322e-03   4.322e-03
CO2(g)            -1.53   2.981e-022731.066   0.000e+00   3.257e-02   3.257e-02
H2O(g)             1.70   4.997e+01  0.002   0.000e+00   5.459e+01   5.459e+01
N2(g)             -4.43   3.700e-051467533.161   0.000e+00   4.043e-05   4.043e-05

-----------------------------Solution composition------------------------------

	Elements           Molality       Moles

	C                 5.771e+00   9.417e-02
	Ca                1.533e-01   2.502e-03
	N                 5.312e-01   8.669e-03

----------------------------Description of solution----------------------------

                                       pH  =   5.797      Charge balance
                                       pe  =  -3.202      Adjusted to redox equilibrium
      Specific Conductance (µS/cm,  50°C)  = 32286
                          Density (g/cm³)  =   0.97445
                               Volume (L)  =   0.01981
                        Activity of water  =   0.894
                 Ionic strength (mol/kgw)  =   7.260e-01
                       Mass of water (kg)  =   1.632e-02
                 Total alkalinity (eq/kg)  =   7.930e-01
                       Total CO2 (mol/kg)  =   2.187e+00
                         Temperature (°C)  =  50.00
                           Pressure (atm)  = 50.00
                  Electrical balance (eq)  =  -1.216e-09
 Percent error, 100*(Cat-|An|)/(Cat+|An|)  =  -0.00
                               Iterations  =  71
                                  Total H  = 2.090176e+00
                                  Total O  = 9.900994e-01

----------------------------Distribution of species----------------------------

                                               Log       Log       Log    mole V
   Species          Molality    Activity  Molality  Activity     Gamma   cm³/mol

   H+              2.143e-06   1.596e-06    -5.669    -5.797    -0.128      0.00
   OH-             5.379e-08   3.182e-08    -7.269    -7.497    -0.228     -2.10
   H2O             5.551e+01   8.937e-01     1.744    -0.049     0.000     18.20
C(-4)         3.584e+00
   CH4             3.584e+00   4.236e+00     0.554     0.627     0.073     37.36
C(4)          2.187e+00
   CO2             1.255e+00   1.484e+00     0.099     0.171     0.073     35.61
   HCO3-           6.821e-01   4.512e-01    -0.166    -0.346    -0.180     28.06
   CaHCO3+         1.092e-01   7.411e-02    -0.962    -1.130    -0.168     10.76
   (CO2)2          6.992e-02   8.265e-02    -1.155    -1.083     0.073     71.21
   CaCO3           5.568e-04   6.581e-04    -3.254    -3.182     0.073    -14.21
   CO3-2           1.044e-04   1.998e-05    -3.981    -4.699    -0.718     -1.54
Ca            1.533e-01
   CaHCO3+         1.092e-01   7.411e-02    -0.962    -1.130    -0.168     10.76
   Ca+2            4.357e-02   1.017e-02    -1.361    -1.993    -0.632    -16.04
   CaCO3           5.568e-04   6.581e-04    -3.254    -3.182     0.073    -14.21
   CaOH+           1.277e-09   9.484e-10    -8.894    -9.023    -0.129     (0)  
H(0)          5.828e-09
   H2              2.914e-09   3.444e-09    -8.536    -8.463     0.073     28.56
N(-3)         4.864e-01
   NH4+            4.860e-01   2.635e-01    -0.313    -0.579    -0.266     (0)  
   NH3             4.037e-04   4.771e-04    -3.394    -3.321     0.073     (0)  
N(0)          4.484e-02
   N2              2.242e-02   2.650e-02    -1.649    -1.577     0.073     29.29
N(3)          0.000e+00
   NO2-            0.000e+00   0.000e+00   -55.640   -55.886    -0.246     26.59
N(5)          0.000e+00
   NO3-            0.000e+00   0.000e+00   -76.577   -76.823    -0.246     31.88
O(0)          0.000e+00
   O2              0.000e+00   0.000e+00   -68.223   -68.150     0.073     31.81

------------------------------Saturation indices-------------------------------

  Phase               SI** log IAP   log K(323 K,  50 atm)

  Aragonite         1.80     -6.69   -8.49  CaCO3
  Calcite           2.00     -6.69   -8.69  CaCO3
  CH4(g)            3.62      0.63   -2.99  CH4	 Pressure   0.0 atm, phi 1044814.902
  CO2(g)            1.91      0.17   -1.74  CO2	 Pressure   0.0 atm, phi 2731.066
  H2(g)            -5.30     -8.46   -3.16  H2
  H2O(g)           -0.95     -0.05    0.90  H2O	 Pressure  50.0 atm, phi 0.002
  N2(g)             1.73     -1.58   -3.31  N2	 Pressure   0.0 atm, phi 1467533.161
  NH3(g)           -4.63     -3.32    1.31  NH3
  O2(g)           -65.09    -68.15   -3.06  O2

**For a gas, SI = log10(fugacity). Fugacity = pressure * phi / 1 atm.
  For ideal gases, phi = 1.

Reaction step 10.

Using solution 1.	Solution after simulation 1.
Using gas phase 1.	Fixed-pressure gas phase
Using temperature 1.	
Using pressure 1.	
Using reaction 1.	

Reaction 1.	

	  2.500e-01 moles of the following reaction have been added:

	                 Relative
	Reactant            moles

	CH2O(NH3)0.07        1.00000

	                 Relative
	Element             moles
	C                    1.00000
	H                    2.21000
	N                    0.07000
	O                    1.00000

-----------------------------------Gas phase-----------------------------------

Total pressure: 50.00      atmospheres          (Peng-Robinson calculation)
    Gas volume:   1.16e+00 liters
  Molar volume:   2.16e-02 liters/mole
   P * Vm / RT:  0.04076  (Compressibility Factor Z) 

                                                        Moles in gas
                                            ----------------------------------
Component         log P           P    phi     Initial       Final       Delta

CH4(g)            -2.44   3.625e-031040014.190   0.000e+00   3.881e-03   3.881e-03
CO2(g)            -1.42   3.827e-022721.594   0.000e+00   4.098e-02   4.098e-02
H2O(g)             1.70   4.996e+01  0.002   0.000e+00   5.350e+01   5.350e+01
N2(g)             -4.71   1.959e-051461338.280   0.000e+00   2.097e-05   2.097e-05

-----------------------------Solution composition------------------------------

	Elements           Molality       Moles

	C                 5.884e+00   2.112e-01
	Ca                6.969e-02   2.502e-03
	N                 4.863e-01   1.746e-02

----------------------------Description of solution----------------------------

                                       pH  =   5.607      Charge balance
                                       pe  =  -2.994      Adjusted to redox equilibrium
      Specific Conductance (µS/cm,  50°C)  = 25738
                          Density (g/cm³)  =   0.97229
                               Volume (L)  =   0.04379
                        Activity of water  =   0.894
                 Ionic strength (mol/kgw)  =   5.762e-01
                       Mass of water (kg)  =   3.590e-02
                 Total alkalinity (eq/kg)  =   6.013e-01
                       Total CO2 (mol/kg)  =   2.500e+00
                         Temperature (°C)  =  50.00
                           Pressure (atm)  = 50.00
                  Electrical balance (eq)  =  -1.216e-09
 Percent error, 100*(Cat-|An|)/(Cat+|An|)  =  -0.00
                               Iterations  =  67
                                  Total H  = 4.558759e+00
                                  Total O  = 2.193566e+00

----------------------------Distribution of species----------------------------

                                               Log       Log       Log    mole V
   Species          Molality    Activity  Molality  Activity     Gamma   cm³/mol

   H+              3.284e-06   2.470e-06    -5.484    -5.607    -0.124      0.00
   OH-             3.373e-08   2.057e-08    -7.472    -7.687    -0.215     -2.37
   H2O             5.551e+01   8.936e-01     1.744    -0.049     0.000     18.20
C(-4)         3.384e+00
   CH4             3.384e+00   3.864e+00     0.529     0.587     0.058     37.36
C(4)          2.500e+00
   CO2             1.662e+00   1.898e+00     0.221     0.278     0.058     35.61
   HCO3-           5.535e-01   3.732e-01    -0.257    -0.428    -0.171     27.68
   (CO2)2          1.184e-01   1.353e-01    -0.926    -0.869     0.058     71.21
   CaHCO3+         4.703e-02   3.247e-02    -1.328    -1.489    -0.161     10.74
   CaCO3           1.632e-04   1.863e-04    -3.787    -3.730     0.058    -14.21
   CO3-2           5.170e-05   1.068e-05    -4.287    -4.971    -0.685     -1.86
Ca            6.969e-02
   CaHCO3+         4.703e-02   3.247e-02    -1.328    -1.489    -0.161     10.74
   Ca+2            2.249e-02   5.390e-03    -1.648    -2.268    -0.620    -16.19
   CaCO3           1.632e-04   1.863e-04    -3.787    -3.730     0.058    -14.21
   CaOH+           4.462e-10   3.248e-10    -9.350    -9.488    -0.138     (0)  
H(0)          5.543e-09
   H2              2.772e-09   3.165e-09    -8.557    -8.500     0.058     28.56
N(-3)         4.619e-01
   NH4+            4.616e-01   2.607e-01    -0.336    -0.584    -0.248     (0)  
   NH3             2.672e-04   3.051e-04    -3.573    -3.516     0.058     (0)  
N(0)          2.446e-02
   N2              1.223e-02   1.397e-02    -1.913    -1.855     0.058     29.29
N(3)          0.000e+00
   NO2-            0.000e+00   0.000e+00   -55.929   -56.159    -0.230     26.48
N(5)          0.000e+00
   NO3-            0.000e+00   0.000e+00   -76.829   -77.059    -0.230     31.81
O(0)          0.000e+00
   O2              0.000e+00   0.000e+00   -68.134   -68.077     0.058     31.81

------------------------------Saturation indices-------------------------------

  Phase               SI** log IAP   log K(323 K,  50 atm)

  Aragonite         1.25     -7.24   -8.49  CaCO3
  Calcite           1.45     -7.24   -8.69  CaCO3
  CH4(g)            3.58      0.59   -2.99  CH4	 Pressure   0.0 atm, phi 1040014.190
  CO2(g)            2.02      0.28   -1.74  CO2	 Pressure   0.0 atm, phi 2721.594
  H2(g)            -5.34     -8.50   -3.16  H2
  H2O(g)           -0.95     -0.05    0.90  H2O	 Pressure  50.0 atm, phi 0.002
  N2(g)             1.46     -1.85   -3.31  N2	 Pressure   0.0 atm, phi 1461338.280
  NH3(g)           -4.82     -3.52    1.31  NH3
  O2(g)           -65.02    -68.08   -3.06  O2

**For a gas, SI = log10(fugacity). Fugacity = pressure * phi / 1 atm.
  For ideal gases, phi = 1.

Reaction step 11.

Using solution 1.	Solution after simulation 1.
Using gas phase 1.	Fixed-pressure gas phase
Using temperature 1.	
Using pressure 1.	
Using reaction 1.	

Reaction 1.	

	  5.000e-01 moles of the following reaction have been added:

	                 Relative
	Reactant            moles

	CH2O(NH3)0.07        1.00000

	                 Relative
	Element             moles
	C                    1.00000
	H                    2.21000
	N                    0.07000
	O                    1.00000

-----------------------------------Gas phase-----------------------------------

Total pressure: 50.00      atmospheres          (Peng-Robinson calculation)
    Gas volume:   1.11e+00 liters
  Molar volume:   2.16e-02 liters/mole
   P * Vm / RT:  0.04076  (Compressibility Factor Z) 

                                                        Moles in gas
                                            ----------------------------------
Component         log P           P    phi     Initial       Final       Delta

CH4(g)            -2.47   3.393e-031036965.122   0.000e+00   3.479e-03   3.479e-03
CO2(g)            -1.36   4.369e-022715.574   0.000e+00   4.479e-02   4.479e-02
H2O(g)             1.70   4.995e+01  0.002   0.000e+00   5.121e+01   5.121e+01
N2(g)             -4.88   1.307e-051457402.663   0.000e+00   1.340e-05   1.340e-05

-----------------------------Solution composition------------------------------

	Elements           Molality       Moles

	C                 5.965e+00   4.578e-01
	Ca                3.260e-02   2.502e-03
	N                 4.557e-01   3.497e-02

----------------------------Description of solution----------------------------

                                       pH  =   5.497      Charge balance
                                       pe  =  -2.872      Adjusted to redox equilibrium
      Specific Conductance (µS/cm,  50°C)  = 22046
                          Density (g/cm³)  =   0.97301
                               Volume (L)  =   0.09391
                        Activity of water  =   0.893
                 Ionic strength (mol/kgw)  =   4.941e-01
                       Mass of water (kg)  =   7.675e-02
                 Total alkalinity (eq/kg)  =   5.043e-01
                       Total CO2 (mol/kg)  =   2.747e+00
                         Temperature (°C)  =  50.00
                           Pressure (atm)  = 50.00
                  Electrical balance (eq)  =  -1.216e-09
 Percent error, 100*(Cat-|An|)/(Cat+|An|)  =  -0.00
                               Iterations  =  64
                                  Total H  = 9.681554e+00
                                  Total O  = 4.720296e+00

----------------------------Distribution of species----------------------------

                                               Log       Log       Log    mole V
   Species          Molality    Activity  Molality  Activity     Gamma   cm³/mol

   H+              4.207e-06   3.186e-06    -5.376    -5.497    -0.121      0.00
   OH-             2.564e-08   1.595e-08    -7.591    -7.797    -0.206     -2.53
   H2O             5.551e+01   8.935e-01     1.744    -0.049     0.000     18.20
C(-4)         3.218e+00
   CH4             3.218e+00   3.606e+00     0.508     0.557     0.049     37.36
C(4)          2.747e+00
   CO2             1.929e+00   2.162e+00     0.285     0.335     0.049     35.61
   HCO3-           4.827e-01   3.296e-01    -0.316    -0.482    -0.166     27.46
   (CO2)2          1.566e-01   1.755e-01    -0.805    -0.756     0.049     71.21
   CaHCO3+         2.121e-02   1.481e-02    -1.674    -1.830    -0.156     10.73
   CaCO3           5.879e-05   6.587e-05    -4.231    -4.181     0.049    -14.21
   CO3-2           3.363e-05   7.313e-06    -4.473    -5.136    -0.663     -2.06
Ca            3.260e-02
   CaHCO3+         2.121e-02   1.481e-02    -1.674    -1.830    -0.156     10.73
   Ca+2            1.133e-02   2.784e-03    -1.946    -2.555    -0.610    -16.27
   CaCO3           5.879e-05   6.587e-05    -4.231    -4.181     0.049    -14.21
   CaOH+           1.799e-10   1.300e-10    -9.745    -9.886    -0.141     (0)  
H(0)          5.374e-09
   H2              2.687e-09   3.011e-09    -8.571    -8.521     0.049     28.56
N(-3)         4.391e-01
   NH4+            4.389e-01   2.546e-01    -0.358    -0.594    -0.237     (0)  
   NH3             2.061e-04   2.310e-04    -3.686    -3.636     0.049     (0)  
N(0)          1.659e-02
   N2              8.296e-03   9.296e-03    -2.081    -2.032     0.049     29.29
N(3)          0.000e+00
   NO2-            0.000e+00   0.000e+00   -56.106   -56.326    -0.220     26.41
N(5)          0.000e+00
   NO3-            0.000e+00   0.000e+00   -76.984   -77.204    -0.220     31.76
O(0)          0.000e+00
   O2              0.000e+00   0.000e+00   -68.083   -68.033     0.049     31.81

------------------------------Saturation indices-------------------------------

  Phase               SI** log IAP   log K(323 K,  50 atm)

  Aragonite         0.80     -7.69   -8.49  CaCO3
  Calcite           1.00     -7.69   -8.69  CaCO3
  CH4(g)            3.55      0.56   -2.99  CH4	 Pressure   0.0 atm, phi 1036965.122
  CO2(g)            2.07      0.33   -1.74  CO2	 Pressure   0.0 atm, phi 2715.574
  H2(g)            -5.36     -8.52   -3.16  H2
  H2O(g)           -0.95     -0.05    0.90  H2O	 Pressure  50.0 atm, phi 0.002
  N2(g)             1.28     -2.03   -3.31  N2	 Pressure   0.0 atm, phi 1457402.663
  NH3(g)           -4.94     -3.64    1.31  NH3
  O2(g)           -64.98    -68.03   -3.06  O2

**For a gas, SI = log10(fugacity). Fugacity = pressure * phi / 1 atm.
  For ideal gases, phi = 1.

Reaction step 12.

Using solution 1.	Solution after simulation 1.
Using gas phase 1.	Fixed-pressure gas phase
Using temperature 1.	
Using pressure 1.	
Using reaction 1.	

Reaction 1.	

	  1.000e+00 moles of the following reaction have been added:

	                 Relative
	Reactant            moles

	CH2O(NH3)0.07        1.00000

	                 Relative
	Element             moles
	C                    1.00000
	H                    2.21000
	N                    0.07000
	O                    1.00000

-----------------------------------Gas phase-----------------------------------

Total pressure: 50.00      atmospheres          (Peng-Robinson calculation)
    Gas volume:   1.01e+00 liters
  Molar volume:   2.16e-02 liters/mole
   P * Vm / RT:  0.04076  (Compressibility Factor Z) 

                                                        Moles in gas
                                            ----------------------------------
Component         log P           P    phi     Initial       Final       Delta

CH4(g)            -2.49   3.262e-031035307.708   0.000e+00   3.042e-03   3.042e-03
CO2(g)            -1.33   4.664e-022712.300   0.000e+00   4.350e-02   4.350e-02
H2O(g)             1.70   4.995e+01  0.002   0.000e+00   4.658e+01   4.658e+01
N2(g)             -4.98   1.044e-051455262.981   0.000e+00   9.739e-06   9.739e-06

-----------------------------Solution composition------------------------------

	Elements           Molality       Moles

	C                 6.012e+00   9.595e-01
	Ca                1.568e-02   2.502e-03
	N                 4.385e-01   6.998e-02

----------------------------Description of solution----------------------------

                                       pH  =   5.438      Charge balance
                                       pe  =  -2.808      Adjusted to redox equilibrium
      Specific Conductance (µS/cm,  50°C)  = 20106
                          Density (g/cm³)  =   0.97386
                               Volume (L)  =   0.19561
                        Activity of water  =   0.893
                 Ionic strength (mol/kgw)  =   4.520e-01
                       Mass of water (kg)  =   1.596e-01
                 Total alkalinity (eq/kg)  =   4.565e-01
                       Total CO2 (mol/kg)  =   2.893e+00
                         Temperature (°C)  =  50.00
                           Pressure (atm)  = 50.00
                  Electrical balance (eq)  =  -1.216e-09
 Percent error, 100*(Cat-|An|)/(Cat+|An|)  =  -0.00
                               Iterations  =  59
                                  Total H  = 2.005220e+01
                                  Total O  = 9.854827e+00

----------------------------Distribution of species----------------------------

                                               Log       Log       Log    mole V
   Species          Molality    Activity  Molality  Activity     Gamma   cm³/mol

   H+              4.798e-06   3.648e-06    -5.319    -5.438    -0.119      0.00
   OH-             2.213e-08   1.393e-08    -7.655    -7.856    -0.201     -2.61
   H2O             5.551e+01   8.934e-01     1.744    -0.049     0.000     18.20
C(-4)         3.119e+00
   CH4             3.119e+00   3.461e+00     0.494     0.539     0.045     37.36
C(4)          2.893e+00
   CO2             2.078e+00   2.305e+00     0.318     0.363     0.045     35.61
   HCO3-           4.462e-01   3.070e-01    -0.350    -0.513    -0.162     27.35
   (CO2)2          1.798e-01   1.995e-01    -0.745    -0.700     0.045     71.21
   CaHCO3+         9.980e-03   7.016e-03    -2.001    -2.154    -0.153     10.72
   CO3-2           2.654e-05   5.949e-06    -4.576    -5.226    -0.649     -2.17
   CaCO3           2.456e-05   2.726e-05    -4.610    -4.565     0.045    -14.21
Ca            1.568e-02
   CaHCO3+         9.980e-03   7.016e-03    -2.001    -2.154    -0.153     10.72
   Ca+2            5.670e-03   1.417e-03    -2.246    -2.849    -0.602    -16.32
   CaCO3           2.456e-05   2.726e-05    -4.610    -4.565     0.045    -14.21
   CaOH+           8.014e-11   5.778e-11   -10.096   -10.238    -0.142     (0)  
H(0)          5.285e-09
   H2              2.643e-09   2.933e-09    -8.578    -8.533     0.045     28.56
N(-3)         4.251e-01
   NH4+            4.249e-01   2.503e-01    -0.372    -0.602    -0.230     (0)  
   NH3             1.787e-04   1.983e-04    -3.748    -3.703     0.045     (0)  
N(0)          1.337e-02
   N2              6.683e-03   7.416e-03    -2.175    -2.130     0.045     29.29
N(3)          0.000e+00
   NO2-            0.000e+00   0.000e+00   -56.202   -56.417    -0.215     26.38
N(5)          0.000e+00
   NO3-            0.000e+00   0.000e+00   -77.069   -77.284    -0.215     31.73
O(0)          0.000e+00
   O2              0.000e+00   0.000e+00   -68.056   -68.011     0.045     31.81

------------------------------Saturation indices-------------------------------

  Phase               SI** log IAP   log K(323 K,  50 atm)

  Aragonite         0.42     -8.07   -8.49  CaCO3
  Calcite           0.62     -8.07   -8.69  CaCO3
  CH4(g)            3.53      0.54   -2.99  CH4	 Pressure   0.0 atm, phi 1035307.708
  CO2(g)            2.10      0.36   -1.74  CO2	 Pressure   0.0 atm, phi 2712.300
  H2(g)            -5.37     -8.53   -3.16  H2
  H2O(g)           -0.95     -0.05    0.90  H2O	 Pressure  50.0 atm, phi 0.002
  N2(g)             1.18     -2.13   -3.31  N2	 Pressure   0.0 atm, phi 1455262.981
  NH3(g)           -5.01     -3.70    1.31  NH3
  O2(g)           -64.96    -68.01   -3.06  O2

**For a gas, SI = log10(fugacity). Fugacity = pressure * phi / 1 atm.
  For ideal gases, phi = 1.

------------------
End of simulation.
------------------

------------------------------------
Reading input data for simulation 3.
------------------------------------

