WARNING: Database file from DATABASE keyword is used; command line argument ignored.
   Input file: ex8_tail_biter
  Output file: ex8_tail_biter.out
Database file: ../database/phreeqc.dat

------------------
Reading data base.
------------------

	SOLUTION_MASTER_SPECIES
	SOLUTION_SPECIES
	PHASES
	GAS_BINARY_PARAMETERS
	EXCHANGE_MASTER_SPECIES
	EXCHANGE_SPECIES
	SURFACE_MASTER_SPECIES
	SURFACE_SPECIES
	MEAN_GAMMAS
	RATES
	END
------------------------------------
Reading input data for simulation 1.
------------------------------------

	DATABASE ../database/phreeqc.dat
	SELECTED_OUTPUT 101
	    file                 ex8_tail_biter_101.sel
	USER_PUNCH 101
	    headings Mu SC
	    start
	10 PUNCH STR_F$(MU, 20, 12)
	20 PUNCH STR_F$(SC, 20, 10)
	    end
	TITLE Example 8.--Sorption of zinc on hydrous 
	                  iron oxides.
	SURFACE_SPECIES
	        Hfo_sOH  + H+ = Hfo_sOH2+
	        log_k  7.18
	        Hfo_sOH = Hfo_sO- + H+
	        log_k  -8.82
	        Hfo_sOH + Zn+2 = Hfo_sOZn+ + H+
	        log_k  0.66
	        Hfo_wOH  + H+ = Hfo_wOH2+
	        log_k  7.18
	        Hfo_wOH = Hfo_wO- + H+
	        log_k  -8.82
	        Hfo_wOH + Zn+2 = Hfo_wOZn+ + H+
	        log_k  -2.32
	SURFACE 1
	        Hfo_sOH        5e-6    600.    0.09
	        Hfo_wOH        2e-4    
	END
-----
TITLE
-----

 Example 8.--Sorption of zinc on hydrous 
                  iron oxides.

------------------
End of simulation.
------------------

------------------------------------
Reading input data for simulation 2.
------------------------------------

	SOLUTION 1
	        units  mmol/kgw
	        pH      8.0
	        Zn      0.0001 
	        Na      100.    charge 
	        N(5)    100.
	SELECTED_OUTPUT
	        file Zn1e_7
	        reset false
	USER_PUNCH
	  10 FOR i = 5 to 8 STEP 0.25
	  20 a$ = EOL$ + "USE solution 1" + CHR$(59) + " USE surface 1" + EOL$
	  30 a$ = a$ + "EQUILIBRIUM_PHASES 1" + EOL$
	  40 a$ = a$ + "   Fix_H+ " + STR$(-i) + " NaOH 10.0" + EOL$
	  50 a$ = a$ + "END" + EOL$
	  55 PUNCH a$
	  60 NEXT i    
	END
-------------------------------------------
Beginning of initial solution calculations.
-------------------------------------------

Initial solution 1.	

WARNING: USER_PUNCH: Headings count does not match number of calls to PUNCH.

-----------------------------Solution composition------------------------------

	Elements           Molality       Moles

	N(5)              1.000e-01   1.000e-01
	Na                1.000e-01   1.000e-01  Charge balance
	Zn                1.000e-07   1.000e-07

----------------------------Description of solution----------------------------

                                       pH  =   8.000    
                                       pe  =   4.000    
      Specific Conductance (µS/cm,  25°C)  = 9916
                          Density (g/cm³)  =   1.00265
                               Volume (L)  =   1.00583
                        Viscosity (mPa s)  =   0.89481
                        Activity of water  =   0.997
                 Ionic strength (mol/kgw)  =   1.000e-01
                       Mass of water (kg)  =   1.000e+00
                 Total alkalinity (eq/kg)  =   1.326e-06
                         Temperature (°C)  =  25.00
                  Electrical balance (eq)  =   6.944e-16
 Percent error, 100*(Cat-|An|)/(Cat+|An|)  =   0.00
                               Iterations  =   9
                                  Total H  = 1.110124e+02
                                  Total O  = 5.580622e+01

----------------------------Distribution of species----------------------------

                                               Log       Log       Log    mole V
   Species          Molality    Activity  Molality  Activity     Gamma   cm³/mol

   OH-             1.324e-06   1.009e-06    -5.878    -5.996    -0.118     -3.73
   H+              1.212e-08   1.000e-08    -7.917    -8.000    -0.083      0.00
   H2O             5.551e+01   9.966e-01     1.744    -0.001     0.000     18.07
H(0)          1.384e-27
   H2              6.918e-28   7.079e-28   -27.160   -27.150     0.010     28.61
N(5)          1.000e-01
   NO3-            1.000e-01   7.534e-02    -1.000    -1.123    -0.123     29.77
Na            1.000e-01
   Na+             1.000e-01   7.851e-02    -1.000    -1.105    -0.105     -1.09
O(0)          1.681e-38
   O2              8.404e-39   8.600e-39   -38.076   -38.066     0.010     30.40
Zn            1.000e-07
   Zn+2            9.102e-08   3.424e-08    -7.041    -7.465    -0.425    -24.68
   ZnOH+           4.790e-09   3.742e-09    -8.320    -8.427    -0.107     (0)  
   Zn(OH)2         4.184e-09   4.282e-09    -8.378    -8.368     0.010     (0)  
   Zn(OH)3-        1.727e-12   1.349e-12   -11.763   -11.870    -0.107     (0)  
   Zn(OH)4-2       5.722e-17   2.131e-17   -16.242   -16.671    -0.429     (0)  

------------------------------Saturation indices-------------------------------

  Phase               SI** log IAP   log K(298 K,   1 atm)

  H2(g)           -24.05    -27.15   -3.10  H2
  H2O(g)           -1.50     -0.00    1.50  H2O
  O2(g)           -35.17    -38.07   -2.89  O2
  Zn(OH)2(e)       -2.97      8.53   11.50  Zn(OH)2

**For a gas, SI = log10(fugacity). Fugacity = pressure * phi / 1 atm.
  For ideal gases, phi = 1.

------------------
End of simulation.
------------------

------------------------------------
Reading input data for simulation 3.
------------------------------------

	SOLUTION 2
	        units  mmol/kgw
	        pH      8.0
	        Zn      0.1 
	        Na      100.    charge 
	        N(5)    100.
	SELECTED_OUTPUT
	        file Zn1e_4
	        reset false
	USER_PUNCH
	  10 FOR i = 5 to 8 STEP 0.25
	  20 PUNCH "USE solution 2" + CHR$(59) + "USE surface 1" + CHR$(13)
	  30 PUNCH "EQUILIBRIUM_PHASES 1" + CHR$(13)
	  40 PUNCH "  Fix_H+", -i, "NaOH 10.0" + CHR$(13)
	  50 PUNCH "END" + CHR$(13) + CHR$(10)
	  60 NEXT i
	END
-------------------------------------------
Beginning of initial solution calculations.
-------------------------------------------

Initial solution 2.	

-----------------------------Solution composition------------------------------

	Elements           Molality       Moles

	N(5)              1.000e-01   1.000e-01
	Na                9.981e-02   9.981e-02  Charge balance
	Zn                1.000e-04   1.000e-04

----------------------------Description of solution----------------------------

                                       pH  =   8.000    
                                       pe  =   4.000    
      Specific Conductance (µS/cm,  25°C)  = 9913
                          Density (g/cm³)  =   1.00266
                               Volume (L)  =   1.00583
                        Viscosity (mPa s)  =   0.89480
                        Activity of water  =   0.997
                 Ionic strength (mol/kgw)  =   1.001e-01
                       Mass of water (kg)  =   1.000e+00
                 Total alkalinity (eq/kg)  =   1.447e-05
                         Temperature (°C)  =  25.00
                  Electrical balance (eq)  =   7.200e-16
 Percent error, 100*(Cat-|An|)/(Cat+|An|)  =   0.00
                               Iterations  =   9
                                  Total H  = 1.110124e+02
                                  Total O  = 5.580623e+01

----------------------------Distribution of species----------------------------

                                               Log       Log       Log    mole V
   Species          Molality    Activity  Molality  Activity     Gamma   cm³/mol

   OH-             1.325e-06   1.009e-06    -5.878    -5.996    -0.118     -3.73
   H+              1.212e-08   1.000e-08    -7.917    -8.000    -0.083      0.00
   H2O             5.551e+01   9.966e-01     1.744    -0.001     0.000     18.07
H(0)          1.384e-27
   H2              6.918e-28   7.079e-28   -27.160   -27.150     0.010     28.61
N(5)          1.000e-01
   NO3-            1.000e-01   7.533e-02    -1.000    -1.123    -0.123     29.77
Na            9.981e-02
   Na+             9.981e-02   7.836e-02    -1.001    -1.106    -0.105     -1.09
O(0)          1.681e-38
   O2              8.404e-39   8.600e-39   -38.076   -38.066     0.010     30.40
Zn            1.000e-04
   Zn+2            9.103e-05   3.423e-05    -4.041    -4.466    -0.425    -24.68
   ZnOH+           4.789e-06   3.741e-06    -5.320    -5.427    -0.107     (0)  
   Zn(OH)2         4.183e-06   4.280e-06    -5.379    -5.369     0.010     (0)  
   Zn(OH)3-        1.727e-09   1.349e-09    -8.763    -8.870    -0.107     (0)  
   Zn(OH)4-2       5.722e-14   2.131e-14   -13.242   -13.671    -0.429     (0)  

------------------------------Saturation indices-------------------------------

  Phase               SI** log IAP   log K(298 K,   1 atm)

  H2(g)           -24.05    -27.15   -3.10  H2
  H2O(g)           -1.50     -0.00    1.50  H2O
  O2(g)           -35.17    -38.07   -2.89  O2
  Zn(OH)2(e)        0.03     11.53   11.50  Zn(OH)2

**For a gas, SI = log10(fugacity). Fugacity = pressure * phi / 1 atm.
  For ideal gases, phi = 1.

------------------
End of simulation.
------------------

------------------------------------
Reading input data for simulation 4.
------------------------------------

	PHASES
	        Fix_H+
	        H+ = H+
	        log_k  0.0
	END
------------------
End of simulation.
------------------

------------------------------------
Reading input data for simulation 5.
------------------------------------

	SELECTED_OUTPUT
	        file ex8.sel
	        molalities     Zn+2    Hfo_wOZn+      Hfo_sOZn+
	USER_PUNCH
	 10
	PRINT
	        user_graph true # false for the Zn_tot = 1e-4 plot
	USER_GRAPH
	        -headings pH Zn_solute Zn_weak_sites Zn_strong_sites
	        -chart_title "Example 8, total Zn = 1e-7 mol"
	        -axis_titles pH "Mol / kgw"
	        -axis_scale x_axis 5.0 8.0 1 0.25
	        -axis_scale y_axis 1e-11 1e-6 1 1 log
	  -start
	  10 GRAPH_X -LA("H+")
	  20 GRAPH_Y MOL("Zn+2"), MOL("Hfo_wOZn+"), MOL("Hfo_sOZn+")
	  -end

	Reading data from Zn1e_7 ...
	USE solution 1
	 USE surface 1
	EQUILIBRIUM_PHASES 1
	   Fix_H+           -5 NaOH 10.0
	END
-----------------------------------------
Beginning of batch-reaction calculations.
-----------------------------------------

Reaction step 1.

Using solution 1.	
Using surface 1.	
Using pure phase assemblage 1.	

-------------------------------Phase assemblage--------------------------------

                                                      Moles in assemblage
Phase               SI  log IAP  log K(T, P)   Initial       Final       Delta

Fix_H+           -5.00    -5.00      0.00
	 NaOH               is reactant       1.000e+01   1.000e+01   1.273e-04

------------------------------Surface composition------------------------------

Diffuse Double Layer Surface-Complexation Model

Hfo           
	  1.123e-04  Surface charge, eq
	  2.006e-01  sigma, C/m²
	  1.228e-01  psi, V
	 -4.779e+00  -F*psi/RT
	  8.404e-03  exp(-F*psi/RT)
	  6.000e+02  specific area, m²/g
	  5.400e+01  m² for   9.000e-02 g


Hfo_s         
	  5.000e-06  moles
	                                   Mole                     Log
	Species               Moles    Fraction    Molality    Molality

	Hfo_sOH2+         2.777e-06       0.555   2.777e-06      -5.556
	Hfo_sOH           2.183e-06       0.437   2.183e-06      -5.661
	Hfo_sO-           3.932e-08       0.008   3.932e-08      -7.405
	Hfo_sOZn+         3.145e-10       0.000   3.145e-10      -9.502

Hfo_w         
	  2.000e-04  moles
	                                   Mole                     Log
	Species               Moles    Fraction    Molality    Molality

	Hfo_wOH2+         1.111e-04       0.555   1.111e-04      -3.954
	Hfo_wOH           8.734e-05       0.437   8.734e-05      -4.059
	Hfo_wO-           1.573e-06       0.008   1.573e-06      -5.803
	Hfo_wOZn+         1.317e-11       0.000   1.317e-11     -10.880

-----------------------------Solution composition------------------------------

	Elements           Molality       Moles

	N                 1.000e-01   1.000e-01
	Na                9.987e-02   9.987e-02
	Zn                9.967e-08   9.967e-08

----------------------------Description of solution----------------------------

                                       pH  =   5.000      Charge balance
                                       pe  =  15.093      Adjusted to redox equilibrium
      Specific Conductance (µS/cm,  25°C)  = 9915
                          Density (g/cm³)  =   1.00265
                               Volume (L)  =   1.00583
                        Viscosity (mPa s)  =   0.89480
                        Activity of water  =   0.997
                 Ionic strength (mol/kgw)  =   9.994e-02
                       Mass of water (kg)  =   1.000e+00
                 Total alkalinity (eq/kg)  =  -1.211e-05
                         Temperature (°C)  =  25.00
                  Electrical balance (eq)  =  -1.123e-04
 Percent error, 100*(Cat-|An|)/(Cat+|An|)  =  -0.06
                               Iterations  =  17
                                  Total H  = 1.110122e+02
                                  Total O  = 5.580609e+01

----------------------------Distribution of species----------------------------

                                               Log       Log       Log    mole V
   Species          Molality    Activity  Molality  Activity     Gamma   cm³/mol

   H+              1.212e-05   1.000e-05    -4.917    -5.000    -0.083      0.00
   OH-             1.324e-09   1.009e-09    -8.878    -8.996    -0.118     -3.73
   H2O             5.551e+01   9.966e-01     1.744    -0.001     0.000     18.07
H(0)          0.000e+00
   H2              0.000e+00   0.000e+00   -43.347   -43.337     0.010     28.61
N(-3)         0.000e+00
   NH4+            0.000e+00   0.000e+00   -52.660   -52.788    -0.128     18.15
   NH3             0.000e+00   0.000e+00   -57.042   -57.032     0.010     24.42
N(0)          1.588e-06
   N2              7.940e-07   8.125e-07    -6.100    -6.090     0.010     29.29
N(3)          2.426e-13
   NO2-            2.426e-13   1.828e-13   -12.615   -12.738    -0.123     25.24
N(5)          1.000e-01
   NO3-            1.000e-01   7.535e-02    -1.000    -1.123    -0.123     29.77
Na            9.987e-02
   Na+             9.987e-02   7.841e-02    -1.001    -1.106    -0.105     -1.09
O(0)          3.970e-06
   O2              1.985e-06   2.031e-06    -5.702    -5.692     0.010     30.40
Zn            9.967e-08
   Zn+2            9.967e-08   3.750e-08    -7.001    -7.426    -0.425    -24.68
   ZnOH+           5.245e-12   4.098e-12   -11.280   -11.387    -0.107     (0)  
   Zn(OH)2         4.582e-15   4.689e-15   -14.339   -14.329     0.010     (0)  
   Zn(OH)3-        1.892e-21   1.478e-21   -20.723   -20.830    -0.107     (0)  
   Zn(OH)4-2       6.266e-29   2.334e-29   -28.203   -28.632    -0.429     (0)  

------------------------------Saturation indices-------------------------------

  Phase               SI** log IAP   log K(298 K,   1 atm)

  Fix_H+           -5.00     -5.00    0.00  H+
  H2(g)           -40.24    -43.34   -3.10  H2
  H2O(g)           -1.50     -0.00    1.50  H2O
  N2(g)            -2.91     -6.09   -3.18  N2
  NH3(g)          -58.83    -57.03    1.80  NH3
  O2(g)            -2.80     -5.69   -2.89  O2
  Zn(OH)2(e)       -8.93      2.57   11.50  Zn(OH)2

**For a gas, SI = log10(fugacity). Fugacity = pressure * phi / 1 atm.
  For ideal gases, phi = 1.

------------------
End of simulation.
------------------

------------------------------------
Reading input data for simulation 6.
------------------------------------

	USE solution 1
	 USE surface 1
	EQUILIBRIUM_PHASES 1
	   Fix_H+  -5.2500e+00 NaOH 10.0
	END
-----------------------------------------
Beginning of batch-reaction calculations.
-----------------------------------------

Reaction step 1.

Using solution 1.	
Using surface 1.	
Using pure phase assemblage 1.	

-------------------------------Phase assemblage--------------------------------

                                                      Moles in assemblage
Phase               SI  log IAP  log K(T, P)   Initial       Final       Delta

Fix_H+           -5.25    -5.25      0.00
	 NaOH               is reactant       1.000e+01   1.000e+01   1.060e-04

------------------------------Surface composition------------------------------

Diffuse Double Layer Surface-Complexation Model

Hfo           
	  9.667e-05  Surface charge, eq
	  1.727e-01  sigma, C/m²
	  1.152e-01  psi, V
	 -4.486e+00  -F*psi/RT
	  1.127e-02  exp(-F*psi/RT)
	  6.000e+02  specific area, m²/g
	  5.400e+01  m² for   9.000e-02 g


Hfo_s         
	  5.000e-06  moles
	                                   Mole                     Log
	Species               Moles    Fraction    Molality    Molality

	Hfo_sOH           2.521e-06       0.504   2.521e-06      -5.598
	Hfo_sOH2+         2.418e-06       0.484   2.418e-06      -5.617
	Hfo_sO-           6.023e-08       0.012   6.023e-08      -7.220
	Hfo_sOZn+         8.608e-10       0.000   8.608e-10      -9.065

Hfo_w         
	  2.000e-04  moles
	                                   Mole                     Log
	Species               Moles    Fraction    Molality    Molality

	Hfo_wOH           1.009e-04       0.504   1.009e-04      -3.996
	Hfo_wOH2+         9.673e-05       0.484   9.673e-05      -4.014
	Hfo_wO-           2.410e-06       0.012   2.410e-06      -5.618
	Hfo_wOZn+         3.606e-11       0.000   3.606e-11     -10.443

-----------------------------Solution composition------------------------------

	Elements           Molality       Moles

	N                 1.000e-01   1.000e-01
	Na                9.990e-02   9.990e-02
	Zn                9.910e-08   9.910e-08

----------------------------Description of solution----------------------------

                                       pH  =   5.250      Charge balance
                                       pe  =  14.808      Adjusted to redox equilibrium
      Specific Conductance (µS/cm,  25°C)  = 9914
                          Density (g/cm³)  =   1.00265
                               Volume (L)  =   1.00583
                        Viscosity (mPa s)  =   0.89480
                        Activity of water  =   0.997
                 Ionic strength (mol/kgw)  =   9.995e-02
                       Mass of water (kg)  =   1.000e+00
                 Total alkalinity (eq/kg)  =  -6.811e-06
                         Temperature (°C)  =  25.00
                  Electrical balance (eq)  =  -9.667e-05
 Percent error, 100*(Cat-|An|)/(Cat+|An|)  =  -0.05
                               Iterations  =  15
                                  Total H  = 1.110122e+02
                                  Total O  = 5.580611e+01

----------------------------Distribution of species----------------------------

                                               Log       Log       Log    mole V
   Species          Molality    Activity  Molality  Activity     Gamma   cm³/mol

   H+              6.813e-06   5.623e-06    -5.167    -5.250    -0.083      0.00
   OH-             2.355e-09   1.794e-09    -8.628    -8.746    -0.118     -3.73
   H2O             5.551e+01   9.966e-01     1.744    -0.001     0.000     18.07
H(0)          0.000e+00
   H2              0.000e+00   0.000e+00   -43.275   -43.265     0.010     28.61
N(-3)         0.000e+00
   NH4+            0.000e+00   0.000e+00   -52.874   -53.002    -0.128     18.15
   NH3             0.000e+00   0.000e+00   -57.007   -56.997     0.010     24.42
N(0)          1.143e-06
   N2              5.714e-07   5.847e-07    -6.243    -6.233     0.010     29.29
N(3)          2.859e-13
   NO2-            2.859e-13   2.154e-13   -12.544   -12.667    -0.123     25.24
N(5)          1.000e-01
   NO3-            1.000e-01   7.535e-02    -1.000    -1.123    -0.123     29.77
Na            9.990e-02
   Na+             9.990e-02   7.843e-02    -1.000    -1.106    -0.105     -1.09
O(0)          2.857e-06
   O2              1.429e-06   1.462e-06    -5.845    -5.835     0.010     30.40
Zn            9.910e-08
   Zn+2            9.909e-08   3.728e-08    -7.004    -7.428    -0.425    -24.68
   ZnOH+           9.274e-12   7.245e-12   -11.033   -11.140    -0.107     (0)  
   Zn(OH)2         1.441e-14   1.474e-14   -13.841   -13.831     0.010     (0)  
   Zn(OH)3-        1.058e-20   8.262e-21   -19.976   -20.083    -0.107     (0)  
   Zn(OH)4-2       6.230e-28   2.321e-28   -27.206   -27.634    -0.429     (0)  

------------------------------Saturation indices-------------------------------

  Phase               SI** log IAP   log K(298 K,   1 atm)

  Fix_H+           -5.25     -5.25    0.00  H+
  H2(g)           -40.16    -43.27   -3.10  H2
  H2O(g)           -1.50     -0.00    1.50  H2O
  N2(g)            -3.06     -6.23   -3.18  N2
  NH3(g)          -58.79    -57.00    1.80  NH3
  O2(g)            -2.94     -5.84   -2.89  O2
  Zn(OH)2(e)       -8.43      3.07   11.50  Zn(OH)2

**For a gas, SI = log10(fugacity). Fugacity = pressure * phi / 1 atm.
  For ideal gases, phi = 1.

------------------
End of simulation.
------------------

------------------------------------
Reading input data for simulation 7.
------------------------------------

	USE solution 1
	 USE surface 1
	EQUILIBRIUM_PHASES 1
	   Fix_H+  -5.5000e+00 NaOH 10.0
	END
-----------------------------------------
Beginning of batch-reaction calculations.
-----------------------------------------

Reaction step 1.

Using solution 1.	
Using surface 1.	
Using pure phase assemblage 1.	

-------------------------------Phase assemblage--------------------------------

                                                      Moles in assemblage
Phase               SI  log IAP  log K(T, P)   Initial       Final       Delta

Fix_H+           -5.50    -5.50      0.00
	 NaOH               is reactant       1.000e+01   1.000e+01   8.811e-05

------------------------------Surface composition------------------------------

Diffuse Double Layer Surface-Complexation Model

Hfo           
	  8.214e-05  Surface charge, eq
	  1.468e-01  sigma, C/m²
	  1.071e-01  psi, V
	 -4.168e+00  -F*psi/RT
	  1.548e-02  exp(-F*psi/RT)
	  6.000e+02  specific area, m²/g
	  5.400e+01  m² for   9.000e-02 g


Hfo_s         
	  5.000e-06  moles
	                                   Mole                     Log
	Species               Moles    Fraction    Molality    Molality

	Hfo_sOH           2.821e-06       0.564   2.821e-06      -5.550
	Hfo_sOH2+         2.090e-06       0.418   2.090e-06      -5.680
	Hfo_sO-           8.724e-08       0.017   8.724e-08      -7.059
	Hfo_sOZn+         2.317e-09       0.000   2.317e-09      -8.635

Hfo_w         
	  2.000e-04  moles
	                                   Mole                     Log
	Species               Moles    Fraction    Molality    Molality

	Hfo_wOH           1.129e-04       0.564   1.129e-04      -3.947
	Hfo_wOH2+         8.362e-05       0.418   8.362e-05      -4.078
	Hfo_wO-           3.491e-06       0.017   3.491e-06      -5.457
	Hfo_wOZn+         9.707e-11       0.000   9.707e-11     -10.013

-----------------------------Solution composition------------------------------

	Elements           Molality       Moles

	N                 1.000e-01   1.000e-01
	Na                9.991e-02   9.991e-02
	Zn                9.759e-08   9.759e-08

----------------------------Description of solution----------------------------

                                       pH  =   5.500      Charge balance
                                       pe  =  14.522      Adjusted to redox equilibrium
      Specific Conductance (µS/cm,  25°C)  = 9913
                          Density (g/cm³)  =   1.00265
                               Volume (L)  =   1.00583
                        Viscosity (mPa s)  =   0.89480
                        Activity of water  =   0.997
                 Ionic strength (mol/kgw)  =   9.996e-02
                       Mass of water (kg)  =   1.000e+00
                 Total alkalinity (eq/kg)  =  -3.827e-06
                         Temperature (°C)  =  25.00
                  Electrical balance (eq)  =  -8.214e-05
 Percent error, 100*(Cat-|An|)/(Cat+|An|)  =  -0.04
                               Iterations  =  15
                                  Total H  = 1.110123e+02
                                  Total O  = 5.580613e+01

----------------------------Distribution of species----------------------------

                                               Log       Log       Log    mole V
   Species          Molality    Activity  Molality  Activity     Gamma   cm³/mol

   H+              3.831e-06   3.162e-06    -5.417    -5.500    -0.083      0.00
   OH-             4.188e-09   3.190e-09    -8.378    -8.496    -0.118     -3.73
   H2O             5.551e+01   9.966e-01     1.744    -0.001     0.000     18.07
H(0)          0.000e+00
   H2              0.000e+00   0.000e+00   -43.204   -43.194     0.010     28.61
N(-3)         0.000e+00
   NH4+            0.000e+00   0.000e+00   -53.089   -53.217    -0.128     18.15
   NH3             0.000e+00   0.000e+00   -56.971   -56.961     0.010     24.42
N(0)          8.225e-07
   N2              4.112e-07   4.208e-07    -6.386    -6.376     0.010     29.29
N(3)          3.371e-13
   NO2-            3.371e-13   2.540e-13   -12.472   -12.595    -0.123     25.24
N(5)          1.000e-01
   NO3-            1.000e-01   7.534e-02    -1.000    -1.123    -0.123     29.77
Na            9.991e-02
   Na+             9.991e-02   7.844e-02    -1.000    -1.105    -0.105     -1.09
O(0)          2.056e-06
   O2              1.028e-06   1.052e-06    -5.988    -5.978     0.010     30.40
Zn            9.759e-08
   Zn+2            9.757e-08   3.671e-08    -7.011    -7.435    -0.425    -24.68
   ZnOH+           1.624e-11   1.269e-11   -10.789   -10.897    -0.107     (0)  
   Zn(OH)2         4.486e-14   4.590e-14   -13.348   -13.338     0.010     (0)  
   Zn(OH)3-        5.855e-20   4.574e-20   -19.232   -19.340    -0.107     (0)  
   Zn(OH)4-2       6.134e-27   2.285e-27   -26.212   -26.641    -0.429     (0)  

------------------------------Saturation indices-------------------------------

  Phase               SI** log IAP   log K(298 K,   1 atm)

  Fix_H+           -5.50     -5.50    0.00  H+
  H2(g)           -40.09    -43.19   -3.10  H2
  H2O(g)           -1.50     -0.00    1.50  H2O
  N2(g)            -3.20     -6.38   -3.18  N2
  NH3(g)          -58.76    -56.96    1.80  NH3
  O2(g)            -3.09     -5.98   -2.89  O2
  Zn(OH)2(e)       -7.94      3.56   11.50  Zn(OH)2

**For a gas, SI = log10(fugacity). Fugacity = pressure * phi / 1 atm.
  For ideal gases, phi = 1.

------------------
End of simulation.
------------------

------------------------------------
Reading input data for simulation 8.
------------------------------------

	USE solution 1
	 USE surface 1
	EQUILIBRIUM_PHASES 1
	   Fix_H+  -5.7500e+00 NaOH 10.0
	END
-----------------------------------------
Beginning of batch-reaction calculations.
-----------------------------------------

Reaction step 1.

Using solution 1.	
Using surface 1.	
Using pure phase assemblage 1.	

-------------------------------Phase assemblage--------------------------------

                                                      Moles in assemblage
Phase               SI  log IAP  log K(T, P)   Initial       Final       Delta

Fix_H+           -5.75    -5.75      0.00
	 NaOH               is reactant       1.000e+01   1.000e+01   7.293e-05

------------------------------Surface composition------------------------------

Diffuse Double Layer Surface-Complexation Model

Hfo           
	  6.888e-05  Surface charge, eq
	  1.231e-01  sigma, C/m²
	  9.838e-02  psi, V
	 -3.829e+00  -F*psi/RT
	  2.173e-02  exp(-F*psi/RT)
	  6.000e+02  specific area, m²/g
	  5.400e+01  m² for   9.000e-02 g


Hfo_s         
	  5.000e-06  moles
	                                   Mole                     Log
	Species               Moles    Fraction    Molality    Molality

	Hfo_sOH           3.075e-06       0.615   3.075e-06      -5.512
	Hfo_sOH2+         1.798e-06       0.360   1.798e-06      -5.745
	Hfo_sO-           1.205e-07       0.024   1.205e-07      -6.919
	Hfo_sOZn+         6.052e-09       0.001   6.052e-09      -8.218

Hfo_w         
	  2.000e-04  moles
	                                   Mole                     Log
	Species               Moles    Fraction    Molality    Molality

	Hfo_wOH           1.232e-04       0.616   1.232e-04      -3.910
	Hfo_wOH2+         7.202e-05       0.360   7.202e-05      -4.143
	Hfo_wO-           4.824e-06       0.024   4.824e-06      -5.317
	Hfo_wOZn+         2.538e-10       0.000   2.538e-10      -9.596

-----------------------------Solution composition------------------------------

	Elements           Molality       Moles

	N                 1.000e-01   1.000e-01
	Na                9.993e-02   9.993e-02
	Zn                9.369e-08   9.369e-08

----------------------------Description of solution----------------------------

                                       pH  =   5.750      Charge balance
                                       pe  =  14.236      Adjusted to redox equilibrium
      Specific Conductance (µS/cm,  25°C)  = 9914
                          Density (g/cm³)  =   1.00265
                               Volume (L)  =   1.00583
                        Viscosity (mPa s)  =   0.89480
                        Activity of water  =   0.997
                 Ionic strength (mol/kgw)  =   9.997e-02
                       Mass of water (kg)  =   1.000e+00
                 Total alkalinity (eq/kg)  =  -2.147e-06
                         Temperature (°C)  =  25.00
                  Electrical balance (eq)  =  -6.888e-05
 Percent error, 100*(Cat-|An|)/(Cat+|An|)  =  -0.03
                               Iterations  =  16
                                  Total H  = 1.110123e+02
                                  Total O  = 5.580615e+01

----------------------------Distribution of species----------------------------

                                               Log       Log       Log    mole V
   Species          Molality    Activity  Molality  Activity     Gamma   cm³/mol

   H+              2.155e-06   1.778e-06    -5.667    -5.750    -0.083      0.00
   OH-             7.448e-09   5.672e-09    -8.128    -8.246    -0.118     -3.73
   H2O             5.551e+01   9.966e-01     1.744    -0.001     0.000     18.07
H(0)          0.000e+00
   H2              0.000e+00   0.000e+00   -43.132   -43.122     0.010     28.61
N(-3)         0.000e+00
   NH4+            0.000e+00   0.000e+00   -53.303   -53.431    -0.128     18.15
   NH3             0.000e+00   0.000e+00   -56.935   -56.925     0.010     24.42
N(0)          5.919e-07
   N2              2.960e-07   3.029e-07    -6.529    -6.519     0.010     29.29
N(3)          3.973e-13
   NO2-            3.973e-13   2.994e-13   -12.401   -12.524    -0.123     25.24
N(5)          1.000e-01
   NO3-            1.000e-01   7.534e-02    -1.000    -1.123    -0.123     29.77
Na            9.993e-02
   Na+             9.993e-02   7.846e-02    -1.000    -1.105    -0.105     -1.09
O(0)          1.480e-06
   O2              7.399e-07   7.571e-07    -6.131    -6.121     0.010     30.40
Zn            9.369e-08
   Zn+2            9.367e-08   3.524e-08    -7.028    -7.453    -0.425    -24.68
   ZnOH+           2.772e-11   2.165e-11   -10.557   -10.664    -0.107     (0)  
   Zn(OH)2         1.362e-13   1.393e-13   -12.866   -12.856     0.010     (0)  
   Zn(OH)3-        3.161e-19   2.469e-19   -18.500   -18.607    -0.107     (0)  
   Zn(OH)4-2       5.889e-26   2.193e-26   -25.230   -25.659    -0.429     (0)  

------------------------------Saturation indices-------------------------------

  Phase               SI** log IAP   log K(298 K,   1 atm)

  Fix_H+           -5.75     -5.75    0.00  H+
  H2(g)           -40.02    -43.12   -3.10  H2
  H2O(g)           -1.50     -0.00    1.50  H2O
  N2(g)            -3.34     -6.52   -3.18  N2
  NH3(g)          -58.72    -56.93    1.80  NH3
  O2(g)            -3.23     -6.12   -2.89  O2
  Zn(OH)2(e)       -7.46      4.04   11.50  Zn(OH)2

**For a gas, SI = log10(fugacity). Fugacity = pressure * phi / 1 atm.
  For ideal gases, phi = 1.

------------------
End of simulation.
------------------

------------------------------------
Reading input data for simulation 9.
------------------------------------

	USE solution 1
	 USE surface 1
	EQUILIBRIUM_PHASES 1
	   Fix_H+           -6 NaOH 10.0
	END
-----------------------------------------
Beginning of batch-reaction calculations.
-----------------------------------------

Reaction step 1.

Using solution 1.	
Using surface 1.	
Using pure phase assemblage 1.	

-------------------------------Phase assemblage--------------------------------

                                                      Moles in assemblage
Phase               SI  log IAP  log K(T, P)   Initial       Final       Delta

Fix_H+           -6.00    -6.00      0.00
	 NaOH               is reactant       1.000e+01   1.000e+01   5.992e-05

------------------------------Surface composition------------------------------

Diffuse Double Layer Surface-Complexation Model

Hfo           
	  5.700e-05  Surface charge, eq
	  1.019e-01  sigma, C/m²
	  8.914e-02  psi, V
	 -3.470e+00  -F*psi/RT
	  3.113e-02  exp(-F*psi/RT)
	  6.000e+02  specific area, m²/g
	  5.400e+01  m² for   9.000e-02 g


Hfo_s         
	  5.000e-06  moles
	                                   Mole                     Log
	Species               Moles    Fraction    Molality    Molality

	Hfo_sOH           3.280e-06       0.656   3.280e-06      -5.484
	Hfo_sOH2+         1.545e-06       0.309   1.545e-06      -5.811
	Hfo_sO-           1.595e-07       0.032   1.595e-07      -6.797
	Hfo_sOZn+         1.484e-08       0.003   1.484e-08      -7.829

Hfo_w         
	  2.000e-04  moles
	                                   Mole                     Log
	Species               Moles    Fraction    Molality    Molality

	Hfo_wOH           1.316e-04       0.658   1.316e-04      -3.881
	Hfo_wOH2+         6.200e-05       0.310   6.200e-05      -4.208
	Hfo_wO-           6.399e-06       0.032   6.399e-06      -5.194
	Hfo_wOZn+         6.232e-10       0.000   6.232e-10      -9.205

-----------------------------Solution composition------------------------------

	Elements           Molality       Moles

	N                 1.000e-01   1.000e-01
	Na                9.994e-02   9.994e-02
	Zn                8.454e-08   8.454e-08

----------------------------Description of solution----------------------------

                                       pH  =   6.000      Charge balance
                                       pe  =  13.950      Adjusted to redox equilibrium
      Specific Conductance (µS/cm,  25°C)  = 9914
                          Density (g/cm³)  =   1.00265
                               Volume (L)  =   1.00583
                        Viscosity (mPa s)  =   0.89480
                        Activity of water  =   0.997
                 Ionic strength (mol/kgw)  =   9.997e-02
                       Mass of water (kg)  =   1.000e+00
                 Total alkalinity (eq/kg)  =  -1.198e-06
                         Temperature (°C)  =  25.00
                  Electrical balance (eq)  =  -5.700e-05
 Percent error, 100*(Cat-|An|)/(Cat+|An|)  =  -0.03
                               Iterations  =  14
                                  Total H  = 1.110123e+02
                                  Total O  = 5.580616e+01

----------------------------Distribution of species----------------------------

                                               Log       Log       Log    mole V
   Species          Molality    Activity  Molality  Activity     Gamma   cm³/mol

   H+              1.212e-06   1.000e-06    -5.917    -6.000    -0.083      0.00
   OH-             1.324e-08   1.009e-08    -7.878    -7.996    -0.118     -3.73
   H2O             5.551e+01   9.966e-01     1.744    -0.001     0.000     18.07
H(0)          0.000e+00
   H2              0.000e+00   0.000e+00   -43.061   -43.051     0.010     28.61
N(-3)         0.000e+00
   NH4+            0.000e+00   0.000e+00   -53.517   -53.645    -0.128     18.15
   NH3             0.000e+00   0.000e+00   -56.899   -56.889     0.010     24.42
N(0)          4.260e-07
   N2              2.130e-07   2.180e-07    -6.672    -6.662     0.010     29.29
N(3)          4.683e-13
   NO2-            4.683e-13   3.529e-13   -12.329   -12.452    -0.123     25.24
N(5)          1.000e-01
   NO3-            1.000e-01   7.534e-02    -1.000    -1.123    -0.123     29.77
Na            9.994e-02
   Na+             9.994e-02   7.847e-02    -1.000    -1.105    -0.105     -1.09
O(0)          1.065e-06
   O2              5.325e-07   5.449e-07    -6.274    -6.264     0.010     30.40
Zn            8.454e-08
   Zn+2            8.450e-08   3.179e-08    -7.073    -7.498    -0.425    -24.68
   ZnOH+           4.447e-11   3.474e-11   -10.352   -10.459    -0.107     (0)  
   Zn(OH)2         3.884e-13   3.975e-13   -12.411   -12.401     0.010     (0)  
   Zn(OH)3-        1.603e-18   1.253e-18   -17.795   -17.902    -0.107     (0)  
   Zn(OH)4-2       5.312e-25   1.979e-25   -24.275   -24.704    -0.429     (0)  

------------------------------Saturation indices-------------------------------

  Phase               SI** log IAP   log K(298 K,   1 atm)

  Fix_H+           -6.00     -6.00    0.00  H+
  H2(g)           -39.95    -43.05   -3.10  H2
  H2O(g)           -1.50     -0.00    1.50  H2O
  N2(g)            -3.49     -6.66   -3.18  N2
  NH3(g)          -58.69    -56.89    1.80  NH3
  O2(g)            -3.37     -6.26   -2.89  O2
  Zn(OH)2(e)       -7.00      4.50   11.50  Zn(OH)2

**For a gas, SI = log10(fugacity). Fugacity = pressure * phi / 1 atm.
  For ideal gases, phi = 1.

------------------
End of simulation.
------------------

-------------------------------------
Reading input data for simulation 10.
-------------------------------------

	USE solution 1
	 USE surface 1
	EQUILIBRIUM_PHASES 1
	   Fix_H+  -6.2500e+00 NaOH 10.0
	END
-----------------------------------------
Beginning of batch-reaction calculations.
-----------------------------------------

Reaction step 1.

Using solution 1.	
Using surface 1.	
Using pure phase assemblage 1.	

-------------------------------Phase assemblage--------------------------------

                                                      Moles in assemblage
Phase               SI  log IAP  log K(T, P)   Initial       Final       Delta

Fix_H+           -6.25    -6.25      0.00
	 NaOH               is reactant       1.000e+01   1.000e+01   4.870e-05

------------------------------Surface composition------------------------------

Diffuse Double Layer Surface-Complexation Model

Hfo           
	  4.647e-05  Surface charge, eq
	  8.304e-02  sigma, C/m²
	  7.941e-02  psi, V
	 -3.091e+00  -F*psi/RT
	  4.545e-02  exp(-F*psi/RT)
	  6.000e+02  specific area, m²/g
	  5.400e+01  m² for   9.000e-02 g


Hfo_s         
	  5.000e-06  moles
	                                   Mole                     Log
	Species               Moles    Fraction    Molality    Molality

	Hfo_sOH           3.436e-06       0.687   3.436e-06      -5.464
	Hfo_sOH2+         1.329e-06       0.266   1.329e-06      -5.876
	Hfo_sO-           2.034e-07       0.041   2.034e-07      -6.692
	Hfo_sOZn+         3.186e-08       0.006   3.186e-08      -7.497

Hfo_w         
	  2.000e-04  moles
	                                   Mole                     Log
	Species               Moles    Fraction    Molality    Molality

	Hfo_wOH           1.383e-04       0.692   1.383e-04      -3.859
	Hfo_wOH2+         5.350e-05       0.268   5.350e-05      -4.272
	Hfo_wO-           8.190e-06       0.041   8.190e-06      -5.087
	Hfo_wOZn+         1.343e-09       0.000   1.343e-09      -8.872

-----------------------------Solution composition------------------------------

	Elements           Molality       Moles

	N                 1.000e-01   1.000e-01
	Na                9.995e-02   9.995e-02
	Zn                6.679e-08   6.679e-08

----------------------------Description of solution----------------------------

                                       pH  =   6.250      Charge balance
                                       pe  =  13.665      Adjusted to redox equilibrium
      Specific Conductance (µS/cm,  25°C)  = 9914
                          Density (g/cm³)  =   1.00265
                               Volume (L)  =   1.00583
                        Viscosity (mPa s)  =   0.89480
                        Activity of water  =   0.997
                 Ionic strength (mol/kgw)  =   9.998e-02
                       Mass of water (kg)  =   1.000e+00
                 Total alkalinity (eq/kg)  =  -6.577e-07
                         Temperature (°C)  =  25.00
                  Electrical balance (eq)  =  -4.647e-05
 Percent error, 100*(Cat-|An|)/(Cat+|An|)  =  -0.02
                               Iterations  =  14
                                  Total H  = 1.110123e+02
                                  Total O  = 5.580617e+01

----------------------------Distribution of species----------------------------

                                               Log       Log       Log    mole V
   Species          Molality    Activity  Molality  Activity     Gamma   cm³/mol

   H+              6.813e-07   5.623e-07    -6.167    -6.250    -0.083      0.00
   OH-             2.355e-08   1.794e-08    -7.628    -7.746    -0.118     -3.73
   H2O             5.551e+01   9.966e-01     1.744    -0.001     0.000     18.07
H(0)          0.000e+00
   H2              0.000e+00   0.000e+00   -42.989   -42.979     0.010     28.61
N(-3)         0.000e+00
   NH4+            0.000e+00   0.000e+00   -53.731   -53.859    -0.128     18.15
   NH3             0.000e+00   0.000e+00   -56.864   -56.854     0.010     24.42
N(0)          3.066e-07
   N2              1.533e-07   1.569e-07    -6.814    -6.804     0.010     29.29
N(3)          5.521e-13
   NO2-            5.521e-13   4.159e-13   -12.258   -12.381    -0.123     25.24
N(5)          1.000e-01
   NO3-            1.000e-01   7.534e-02    -1.000    -1.123    -0.123     29.77
Na            9.995e-02
   Na+             9.995e-02   7.847e-02    -1.000    -1.105    -0.105     -1.09
O(0)          7.665e-07
   O2              3.832e-07   3.922e-07    -6.417    -6.407     0.010     30.40
Zn            6.679e-08
   Zn+2            6.673e-08   2.510e-08    -7.176    -7.600    -0.425    -24.68
   ZnOH+           6.244e-11   4.878e-11   -10.205   -10.312    -0.107     (0)  
   Zn(OH)2         9.700e-13   9.926e-13   -12.013   -12.003     0.010     (0)  
   Zn(OH)3-        7.121e-18   5.563e-18   -17.147   -17.255    -0.107     (0)  
   Zn(OH)4-2       4.195e-24   1.563e-24   -23.377   -23.806    -0.429     (0)  

------------------------------Saturation indices-------------------------------

  Phase               SI** log IAP   log K(298 K,   1 atm)

  Fix_H+           -6.25     -6.25    0.00  H+
  H2(g)           -39.88    -42.98   -3.10  H2
  H2O(g)           -1.50     -0.00    1.50  H2O
  N2(g)            -3.63     -6.80   -3.18  N2
  NH3(g)          -58.65    -56.85    1.80  NH3
  O2(g)            -3.51     -6.41   -2.89  O2
  Zn(OH)2(e)       -6.60      4.90   11.50  Zn(OH)2

**For a gas, SI = log10(fugacity). Fugacity = pressure * phi / 1 atm.
  For ideal gases, phi = 1.

------------------
End of simulation.
------------------

-------------------------------------
Reading input data for simulation 11.
-------------------------------------

	USE solution 1
	 USE surface 1
	EQUILIBRIUM_PHASES 1
	   Fix_H+  -6.5000e+00 NaOH 10.0
	END
-----------------------------------------
Beginning of batch-reaction calculations.
-----------------------------------------

Reaction step 1.

Using solution 1.	
Using surface 1.	
Using pure phase assemblage 1.	

-------------------------------Phase assemblage--------------------------------

                                                      Moles in assemblage
Phase               SI  log IAP  log K(T, P)   Initial       Final       Delta

Fix_H+           -6.50    -6.50      0.00
	 NaOH               is reactant       1.000e+01   1.000e+01   3.899e-05

------------------------------Surface composition------------------------------

Diffuse Double Layer Surface-Complexation Model

Hfo           
	  3.722e-05  Surface charge, eq
	  6.651e-02  sigma, C/m²
	  6.921e-02  psi, V
	 -2.694e+00  -F*psi/RT
	  6.762e-02  exp(-F*psi/RT)
	  6.000e+02  specific area, m²/g
	  5.400e+01  m² for   9.000e-02 g


Hfo_s         
	  5.000e-06  moles
	                                   Mole                     Log
	Species               Moles    Fraction    Molality    Molality

	Hfo_sOH           3.546e-06       0.709   3.546e-06      -5.450
	Hfo_sOH2+         1.148e-06       0.230   1.148e-06      -5.940
	Hfo_sO-           2.510e-07       0.050   2.510e-07      -6.600
	Hfo_sOZn+         5.523e-08       0.011   5.523e-08      -7.258

Hfo_w         
	  2.000e-04  moles
	                                   Mole                     Log
	Species               Moles    Fraction    Molality    Molality

	Hfo_wOH           1.434e-04       0.717   1.434e-04      -3.843
	Hfo_wOH2+         4.642e-05       0.232   4.642e-05      -4.333
	Hfo_wO-           1.015e-05       0.051   1.015e-05      -4.993
	Hfo_wOZn+         2.339e-09       0.000   2.339e-09      -8.631

-----------------------------Solution composition------------------------------

	Elements           Molality       Moles

	N                 1.000e-01   1.000e-01
	Na                9.996e-02   9.996e-02
	Zn                4.243e-08   4.243e-08

----------------------------Description of solution----------------------------

                                       pH  =   6.500      Charge balance
                                       pe  =  13.379      Adjusted to redox equilibrium
      Specific Conductance (µS/cm,  25°C)  = 9914
                          Density (g/cm³)  =   1.00265
                               Volume (L)  =   1.00583
                        Viscosity (mPa s)  =   0.89480
                        Activity of water  =   0.997
                 Ionic strength (mol/kgw)  =   9.998e-02
                       Mass of water (kg)  =   1.000e+00
                 Total alkalinity (eq/kg)  =  -3.412e-07
                         Temperature (°C)  =  25.00
                  Electrical balance (eq)  =  -3.722e-05
 Percent error, 100*(Cat-|An|)/(Cat+|An|)  =  -0.02
                               Iterations  =  14
                                  Total H  = 1.110124e+02
                                  Total O  = 5.580618e+01

----------------------------Distribution of species----------------------------

                                               Log       Log       Log    mole V
   Species          Molality    Activity  Molality  Activity     Gamma   cm³/mol

   H+              3.831e-07   3.162e-07    -6.417    -6.500    -0.083      0.00
   OH-             4.188e-08   3.190e-08    -7.378    -7.496    -0.118     -3.73
   H2O             5.551e+01   9.966e-01     1.744    -0.001     0.000     18.07
H(0)          0.000e+00
   H2              0.000e+00   0.000e+00   -42.918   -42.908     0.010     28.61
N(-3)         0.000e+00
   NH4+            0.000e+00   0.000e+00   -53.946   -54.074    -0.128     18.15
   NH3             0.000e+00   0.000e+00   -56.828   -56.818     0.010     24.42
N(0)          2.206e-07
   N2              1.103e-07   1.129e-07    -6.957    -6.947     0.010     29.29
N(3)          6.508e-13
   NO2-            6.508e-13   4.903e-13   -12.187   -12.310    -0.123     25.24
N(5)          1.000e-01
   NO3-            1.000e-01   7.534e-02    -1.000    -1.123    -0.123     29.77
Na            9.996e-02
   Na+             9.996e-02   7.848e-02    -1.000    -1.105    -0.105     -1.09
O(0)          5.516e-07
   O2              2.758e-07   2.822e-07    -6.559    -6.549     0.010     30.40
Zn            4.243e-08
   Zn+2            4.236e-08   1.594e-08    -7.373    -7.798    -0.425    -24.68
   ZnOH+           7.049e-11   5.507e-11   -10.152   -10.259    -0.107     (0)  
   Zn(OH)2         1.947e-12   1.993e-12   -11.711   -11.701     0.010     (0)  
   Zn(OH)3-        2.542e-17   1.986e-17   -16.595   -16.702    -0.107     (0)  
   Zn(OH)4-2       2.663e-23   9.919e-24   -22.575   -23.004    -0.429     (0)  

------------------------------Saturation indices-------------------------------

  Phase               SI** log IAP   log K(298 K,   1 atm)

  Fix_H+           -6.50     -6.50    0.00  H+
  H2(g)           -39.81    -42.91   -3.10  H2
  H2O(g)           -1.50     -0.00    1.50  H2O
  N2(g)            -3.77     -6.95   -3.18  N2
  NH3(g)          -58.61    -56.82    1.80  NH3
  O2(g)            -3.66     -6.55   -2.89  O2
  Zn(OH)2(e)       -6.30      5.20   11.50  Zn(OH)2

**For a gas, SI = log10(fugacity). Fugacity = pressure * phi / 1 atm.
  For ideal gases, phi = 1.

------------------
End of simulation.
------------------

-------------------------------------
Reading input data for simulation 12.
-------------------------------------

	USE solution 1
	 USE surface 1
	EQUILIBRIUM_PHASES 1
	   Fix_H+  -6.7500e+00 NaOH 10.0
	END
-----------------------------------------
Beginning of batch-reaction calculations.
-----------------------------------------

Reaction step 1.

Using solution 1.	
Using surface 1.	
Using pure phase assemblage 1.	

-------------------------------Phase assemblage--------------------------------

                                                      Moles in assemblage
Phase               SI  log IAP  log K(T, P)   Initial       Final       Delta

Fix_H+           -6.75    -6.75      0.00
	 NaOH               is reactant       1.000e+01   1.000e+01   3.058e-05

------------------------------Surface composition------------------------------

Diffuse Double Layer Surface-Complexation Model

Hfo           
	  2.911e-05  Surface charge, eq
	  5.203e-02  sigma, C/m²
	  5.854e-02  psi, V
	 -2.279e+00  -F*psi/RT
	  1.024e-01  exp(-F*psi/RT)
	  6.000e+02  specific area, m²/g
	  5.400e+01  m² for   9.000e-02 g


Hfo_s         
	  5.000e-06  moles
	                                   Mole                     Log
	Species               Moles    Fraction    Molality    Molality

	Hfo_sOH           3.624e-06       0.725   3.624e-06      -5.441
	Hfo_sOH2+         9.990e-07       0.200   9.990e-07      -6.000
	Hfo_sO-           3.012e-07       0.060   3.012e-07      -6.521
	Hfo_sOZn+         7.564e-08       0.015   7.564e-08      -7.121

Hfo_w         
	  2.000e-04  moles
	                                   Mole                     Log
	Species               Moles    Fraction    Molality    Molality

	Hfo_wOH           1.472e-04       0.736   1.472e-04      -3.832
	Hfo_wOH2+         4.057e-05       0.203   4.057e-05      -4.392
	Hfo_wO-           1.223e-05       0.061   1.223e-05      -4.912
	Hfo_wOZn+         3.217e-09       0.000   3.217e-09      -8.493

-----------------------------Solution composition------------------------------

	Elements           Molality       Moles

	N                 1.000e-01   1.000e-01
	Na                9.997e-02   9.997e-02
	Zn                2.114e-08   2.114e-08

----------------------------Description of solution----------------------------

                                       pH  =   6.750      Charge balance
                                       pe  =  13.093      Adjusted to redox equilibrium
      Specific Conductance (µS/cm,  25°C)  = 9914
                          Density (g/cm³)  =   1.00265
                               Volume (L)  =   1.00583
                        Viscosity (mPa s)  =   0.89480
                        Activity of water  =   0.997
                 Ionic strength (mol/kgw)  =   9.999e-02
                       Mass of water (kg)  =   1.000e+00
                 Total alkalinity (eq/kg)  =  -1.409e-07
                         Temperature (°C)  =  25.00
                  Electrical balance (eq)  =  -2.911e-05
 Percent error, 100*(Cat-|An|)/(Cat+|An|)  =  -0.01
                               Iterations  =  15
                                  Total H  = 1.110124e+02
                                  Total O  = 5.580619e+01

----------------------------Distribution of species----------------------------

                                               Log       Log       Log    mole V
   Species          Molality    Activity  Molality  Activity     Gamma   cm³/mol

   H+              2.155e-07   1.778e-07    -6.667    -6.750    -0.083      0.00
   OH-             7.448e-08   5.672e-08    -7.128    -7.246    -0.118     -3.73
   H2O             5.551e+01   9.966e-01     1.744    -0.001     0.000     18.07
H(0)          0.000e+00
   H2              0.000e+00   0.000e+00   -42.847   -42.837     0.010     28.61
N(-3)         0.000e+00
   NH4+            0.000e+00   0.000e+00   -54.160   -54.288    -0.128     18.15
   NH3             0.000e+00   0.000e+00   -56.792   -56.782     0.010     24.42
N(0)          1.588e-07
   N2              7.940e-08   8.125e-08    -7.100    -7.090     0.010     29.29
N(3)          7.671e-13
   NO2-            7.671e-13   5.779e-13   -12.115   -12.238    -0.123     25.24
N(5)          1.000e-01
   NO3-            1.000e-01   7.534e-02    -1.000    -1.123    -0.123     29.77
Na            9.997e-02
   Na+             9.997e-02   7.849e-02    -1.000    -1.105    -0.105     -1.09
O(0)          3.970e-07
   O2              1.985e-07   2.031e-07    -6.702    -6.692     0.010     30.40
Zn            2.114e-08
   Zn+2            2.108e-08   7.929e-09    -7.676    -8.101    -0.425    -24.68
   ZnOH+           6.237e-11   4.872e-11   -10.205   -10.312    -0.107     (0)  
   Zn(OH)2         3.064e-12   3.135e-12   -11.514   -11.504     0.010     (0)  
   Zn(OH)3-        7.112e-17   5.556e-17   -16.148   -16.255    -0.107     (0)  
   Zn(OH)4-2       1.325e-22   4.935e-23   -21.878   -22.307    -0.429     (0)  

------------------------------Saturation indices-------------------------------

  Phase               SI** log IAP   log K(298 K,   1 atm)

  Fix_H+           -6.75     -6.75    0.00  H+
  H2(g)           -39.74    -42.84   -3.10  H2
  H2O(g)           -1.50     -0.00    1.50  H2O
  N2(g)            -3.91     -7.09   -3.18  N2
  NH3(g)          -58.58    -56.78    1.80  NH3
  O2(g)            -3.80     -6.69   -2.89  O2
  Zn(OH)2(e)       -6.10      5.40   11.50  Zn(OH)2

**For a gas, SI = log10(fugacity). Fugacity = pressure * phi / 1 atm.
  For ideal gases, phi = 1.

------------------
End of simulation.
------------------

-------------------------------------
Reading input data for simulation 13.
-------------------------------------

	USE solution 1
	 USE surface 1
	EQUILIBRIUM_PHASES 1
	   Fix_H+           -7 NaOH 10.0
	END
-----------------------------------------
Beginning of batch-reaction calculations.
-----------------------------------------

Reaction step 1.

Using solution 1.	
Using surface 1.	
Using pure phase assemblage 1.	

-------------------------------Phase assemblage--------------------------------

                                                      Moles in assemblage
Phase               SI  log IAP  log K(T, P)   Initial       Final       Delta

Fix_H+           -7.00    -7.00      0.00
	 NaOH               is reactant       1.000e+01   1.000e+01   2.326e-05

------------------------------Surface composition------------------------------

Diffuse Double Layer Surface-Complexation Model

Hfo           
	  2.201e-05  Surface charge, eq
	  3.934e-02  sigma, C/m²
	  4.745e-02  psi, V
	 -1.847e+00  -F*psi/RT
	  1.577e-01  exp(-F*psi/RT)
	  6.000e+02  specific area, m²/g
	  5.400e+01  m² for   9.000e-02 g


Hfo_s         
	  5.000e-06  moles
	                                   Mole                     Log
	Species               Moles    Fraction    Molality    Molality

	Hfo_sOH           3.681e-06       0.736   3.681e-06      -5.434
	Hfo_sOH2+         8.787e-07       0.176   8.787e-07      -6.056
	Hfo_sO-           3.532e-07       0.071   3.532e-07      -6.452
	Hfo_sOZn+         8.746e-08       0.017   8.746e-08      -7.058

Hfo_w         
	  2.000e-04  moles
	                                   Mole                     Log
	Species               Moles    Fraction    Molality    Molality

	Hfo_wOH           1.498e-04       0.749   1.498e-04      -3.824
	Hfo_wOH2+         3.577e-05       0.179   3.577e-05      -4.446
	Hfo_wO-           1.438e-05       0.072   1.438e-05      -4.842
	Hfo_wOZn+         3.728e-09       0.000   3.728e-09      -8.428

-----------------------------Solution composition------------------------------

	Elements           Molality       Moles

	N                 1.000e-01   1.000e-01
	Na                9.998e-02   9.998e-02
	Zn                8.811e-09   8.811e-09

----------------------------Description of solution----------------------------

                                       pH  =   7.000      Charge balance
                                       pe  =  12.808      Adjusted to redox equilibrium
      Specific Conductance (µS/cm,  25°C)  = 9915
                          Density (g/cm³)  =   1.00265
                               Volume (L)  =   1.00583
                        Viscosity (mPa s)  =   0.89480
                        Activity of water  =   0.997
                 Ionic strength (mol/kgw)  =   9.999e-02
                       Mass of water (kg)  =   1.000e+00
                 Total alkalinity (eq/kg)  =   1.134e-08
                         Temperature (°C)  =  25.00
                  Electrical balance (eq)  =  -2.201e-05
 Percent error, 100*(Cat-|An|)/(Cat+|An|)  =  -0.01
                               Iterations  =  14
                                  Total H  = 1.110124e+02
                                  Total O  = 5.580619e+01

----------------------------Distribution of species----------------------------

                                               Log       Log       Log    mole V
   Species          Molality    Activity  Molality  Activity     Gamma   cm³/mol

   OH-             1.324e-07   1.009e-07    -6.878    -6.996    -0.118     -3.73
   H+              1.212e-07   1.000e-07    -6.917    -7.000    -0.083      0.00
   H2O             5.551e+01   9.966e-01     1.744    -0.001     0.000     18.07
H(0)          0.000e+00
   H2              0.000e+00   0.000e+00   -42.775   -42.765     0.010     28.61
N(-3)         0.000e+00
   NH4+            0.000e+00   0.000e+00   -54.374   -54.502    -0.128     18.15
   NH3             0.000e+00   0.000e+00   -56.757   -56.747     0.010     24.42
N(0)          1.143e-07
   N2              5.714e-08   5.847e-08    -7.243    -7.233     0.010     29.29
N(3)          9.042e-13
   NO2-            9.042e-13   6.813e-13   -12.044   -12.167    -0.123     25.24
N(5)          1.000e-01
   NO3-            1.000e-01   7.534e-02    -1.000    -1.123    -0.123     29.77
Na            9.998e-02
   Na+             9.998e-02   7.849e-02    -1.000    -1.105    -0.105     -1.09
O(0)          2.857e-07
   O2              1.429e-07   1.462e-07    -6.845    -6.835     0.010     30.40
Zn            8.811e-09
   Zn+2            8.761e-09   3.296e-09    -8.057    -8.482    -0.425    -24.68
   ZnOH+           4.610e-11   3.601e-11   -10.336   -10.444    -0.107     (0)  
   Zn(OH)2         4.027e-12   4.121e-12   -11.395   -11.385     0.010     (0)  
   Zn(OH)3-        1.662e-16   1.299e-16   -15.779   -15.886    -0.107     (0)  
   Zn(OH)4-2       5.508e-22   2.051e-22   -21.259   -21.688    -0.429     (0)  

------------------------------Saturation indices-------------------------------

  Phase               SI** log IAP   log K(298 K,   1 atm)

  Fix_H+           -7.00     -7.00    0.00  H+
  H2(g)           -39.66    -42.77   -3.10  H2
  H2O(g)           -1.50     -0.00    1.50  H2O
  N2(g)            -4.06     -7.23   -3.18  N2
  NH3(g)          -58.54    -56.75    1.80  NH3
  O2(g)            -3.94     -6.84   -2.89  O2
  Zn(OH)2(e)       -5.99      5.51   11.50  Zn(OH)2

**For a gas, SI = log10(fugacity). Fugacity = pressure * phi / 1 atm.
  For ideal gases, phi = 1.

------------------
End of simulation.
------------------

-------------------------------------
Reading input data for simulation 14.
-------------------------------------

	USE solution 1
	 USE surface 1
	EQUILIBRIUM_PHASES 1
	   Fix_H+  -7.2500e+00 NaOH 10.0
	END
-----------------------------------------
Beginning of batch-reaction calculations.
-----------------------------------------

Reaction step 1.

Using solution 1.	
Using surface 1.	
Using pure phase assemblage 1.	

-------------------------------Phase assemblage--------------------------------

                                                      Moles in assemblage
Phase               SI  log IAP  log K(T, P)   Initial       Final       Delta

Fix_H+           -7.25    -7.25      0.00
	 NaOH               is reactant       1.000e+01   1.000e+01   1.680e-05

------------------------------Surface composition------------------------------

Diffuse Double Layer Surface-Complexation Model

Hfo           
	  1.575e-05  Surface charge, eq
	  2.814e-02  sigma, C/m²
	  3.597e-02  psi, V
	 -1.400e+00  -F*psi/RT
	  2.466e-01  exp(-F*psi/RT)
	  6.000e+02  specific area, m²/g
	  5.400e+01  m² for   9.000e-02 g


Hfo_s         
	  5.000e-06  moles
	                                   Mole                     Log
	Species               Moles    Fraction    Molality    Molality

	Hfo_sOH           3.720e-06       0.744   3.720e-06      -5.429
	Hfo_sOH2+         7.809e-07       0.156   7.809e-07      -6.107
	Hfo_sO-           4.060e-07       0.081   4.060e-07      -6.391
	Hfo_sOZn+         9.270e-08       0.019   9.270e-08      -7.033

Hfo_w         
	  2.000e-04  moles
	                                   Mole                     Log
	Species               Moles    Fraction    Molality    Molality

	Hfo_wOH           1.516e-04       0.758   1.516e-04      -3.819
	Hfo_wOH2+         3.183e-05       0.159   3.183e-05      -4.497
	Hfo_wO-           1.655e-05       0.083   1.655e-05      -4.781
	Hfo_wOZn+         3.956e-09       0.000   3.956e-09      -8.403

-----------------------------Solution composition------------------------------

	Elements           Molality       Moles

	N                 1.000e-01   1.000e-01
	Na                9.998e-02   9.998e-02
	Zn                3.340e-09   3.340e-09

----------------------------Description of solution----------------------------

                                       pH  =   7.250      Charge balance
                                       pe  =  12.522      Adjusted to redox equilibrium
      Specific Conductance (µS/cm,  25°C)  = 9915
                          Density (g/cm³)  =   1.00265
                               Volume (L)  =   1.00583
                        Viscosity (mPa s)  =   0.89480
                        Activity of water  =   0.997
                 Ionic strength (mol/kgw)  =   9.999e-02
                       Mass of water (kg)  =   1.000e+00
                 Total alkalinity (eq/kg)  =   1.674e-07
                         Temperature (°C)  =  25.00
                  Electrical balance (eq)  =  -1.575e-05
 Percent error, 100*(Cat-|An|)/(Cat+|An|)  =  -0.01
                               Iterations  =  14
                                  Total H  = 1.110124e+02
                                  Total O  = 5.580620e+01

----------------------------Distribution of species----------------------------

                                               Log       Log       Log    mole V
   Species          Molality    Activity  Molality  Activity     Gamma   cm³/mol

   OH-             2.355e-07   1.794e-07    -6.628    -6.746    -0.118     -3.73
   H+              6.813e-08   5.623e-08    -7.167    -7.250    -0.083      0.00
   H2O             5.551e+01   9.966e-01     1.744    -0.001     0.000     18.07
H(0)          0.000e+00
   H2              0.000e+00   0.000e+00   -42.704   -42.694     0.010     28.61
N(-3)         0.000e+00
   NH4+            0.000e+00   0.000e+00   -54.589   -54.717    -0.128     18.15
   NH3             0.000e+00   0.000e+00   -56.721   -56.711     0.010     24.42
N(0)          8.225e-08
   N2              4.112e-08   4.208e-08    -7.386    -7.376     0.010     29.29
N(3)          1.066e-12
   NO2-            1.066e-12   8.031e-13   -11.972   -12.095    -0.123     25.24
N(5)          1.000e-01
   NO3-            1.000e-01   7.534e-02    -1.000    -1.123    -0.123     29.77
Na            9.998e-02
   Na+             9.998e-02   7.850e-02    -1.000    -1.105    -0.105     -1.09
O(0)          2.056e-07
   O2              1.028e-07   1.052e-07    -6.988    -6.978     0.010     30.40
Zn            3.340e-09
   Zn+2            3.304e-09   1.243e-09    -8.481    -8.905    -0.425    -24.68
   ZnOH+           3.092e-11   2.416e-11   -10.510   -10.617    -0.107     (0)  
   Zn(OH)2         4.803e-12   4.915e-12   -11.318   -11.308     0.010     (0)  
   Zn(OH)3-        3.526e-16   2.755e-16   -15.453   -15.560    -0.107     (0)  
   Zn(OH)4-2       2.077e-21   7.737e-22   -20.682   -21.111    -0.429     (0)  

------------------------------Saturation indices-------------------------------

  Phase               SI** log IAP   log K(298 K,   1 atm)

  Fix_H+           -7.25     -7.25    0.00  H+
  H2(g)           -39.59    -42.69   -3.10  H2
  H2O(g)           -1.50     -0.00    1.50  H2O
  N2(g)            -4.20     -7.38   -3.18  N2
  NH3(g)          -58.51    -56.71    1.80  NH3
  O2(g)            -4.09     -6.98   -2.89  O2
  Zn(OH)2(e)       -5.91      5.59   11.50  Zn(OH)2

**For a gas, SI = log10(fugacity). Fugacity = pressure * phi / 1 atm.
  For ideal gases, phi = 1.

------------------
End of simulation.
------------------

-------------------------------------
Reading input data for simulation 15.
-------------------------------------

	USE solution 1
	 USE surface 1
	EQUILIBRIUM_PHASES 1
	   Fix_H+  -7.5000e+00 NaOH 10.0
	END
-----------------------------------------
Beginning of batch-reaction calculations.
-----------------------------------------

Reaction step 1.

Using solution 1.	
Using surface 1.	
Using pure phase assemblage 1.	

-------------------------------Phase assemblage--------------------------------

                                                      Moles in assemblage
Phase               SI  log IAP  log K(T, P)   Initial       Final       Delta

Fix_H+           -7.50    -7.50      0.00
	 NaOH               is reactant       1.000e+01   1.000e+01   1.094e-05

------------------------------Surface composition------------------------------

Diffuse Double Layer Surface-Complexation Model

Hfo           
	  1.013e-05  Surface charge, eq
	  1.811e-02  sigma, C/m²
	  2.418e-02  psi, V
	 -9.410e-01  -F*psi/RT
	  3.902e-01  exp(-F*psi/RT)
	  6.000e+02  specific area, m²/g
	  5.400e+01  m² for   9.000e-02 g


Hfo_s         
	  5.000e-06  moles
	                                   Mole                     Log
	Species               Moles    Fraction    Molality    Molality

	Hfo_sOH           3.746e-06       0.749   3.746e-06      -5.426
	Hfo_sOH2+         6.997e-07       0.140   6.997e-07      -6.155
	Hfo_sO-           4.595e-07       0.092   4.595e-07      -6.338
	Hfo_sOZn+         9.474e-08       0.019   9.474e-08      -7.023

Hfo_w         
	  2.000e-04  moles
	                                   Mole                     Log
	Species               Moles    Fraction    Molality    Molality

	Hfo_wOH           1.527e-04       0.764   1.527e-04      -3.816
	Hfo_wOH2+         2.853e-05       0.143   2.853e-05      -4.545
	Hfo_wO-           1.873e-05       0.094   1.873e-05      -4.727
	Hfo_wOZn+         4.045e-09       0.000   4.045e-09      -8.393

-----------------------------Solution composition------------------------------

	Elements           Molality       Moles

	N                 1.000e-01   1.000e-01
	Na                9.999e-02   9.999e-02
	Zn                1.217e-09   1.217e-09

----------------------------Description of solution----------------------------

                                       pH  =   7.500      Charge balance
                                       pe  =  12.236      Adjusted to redox equilibrium
      Specific Conductance (µS/cm,  25°C)  = 9915
                          Density (g/cm³)  =   1.00265
                               Volume (L)  =   1.00583
                        Viscosity (mPa s)  =   0.89481
                        Activity of water  =   0.997
                 Ionic strength (mol/kgw)  =   1.000e-01
                       Mass of water (kg)  =   1.000e+00
                 Total alkalinity (eq/kg)  =   3.806e-07
                         Temperature (°C)  =  25.00
                  Electrical balance (eq)  =  -1.013e-05
 Percent error, 100*(Cat-|An|)/(Cat+|An|)  =  -0.01
                               Iterations  =  14
                                  Total H  = 1.110124e+02
                                  Total O  = 5.580621e+01

----------------------------Distribution of species----------------------------

                                               Log       Log       Log    mole V
   Species          Molality    Activity  Molality  Activity     Gamma   cm³/mol

   OH-             4.188e-07   3.190e-07    -6.378    -6.496    -0.118     -3.73
   H+              3.831e-08   3.162e-08    -7.417    -7.500    -0.083      0.00
   H2O             5.551e+01   9.966e-01     1.744    -0.001     0.000     18.07
H(0)          0.000e+00
   H2              0.000e+00   0.000e+00   -42.632   -42.622     0.010     28.61
N(-3)         0.000e+00
   NH4+            0.000e+00   0.000e+00   -54.803   -54.931    -0.128     18.15
   NH3             0.000e+00   0.000e+00   -56.685   -56.675     0.010     24.42
N(0)          5.919e-08
   N2              2.960e-08   3.028e-08    -7.529    -7.519     0.010     29.29
N(3)          1.256e-12
   NO2-            1.256e-12   9.466e-13   -11.901   -12.024    -0.123     25.24
N(5)          1.000e-01
   NO3-            1.000e-01   7.534e-02    -1.000    -1.123    -0.123     29.77
Na            9.999e-02
   Na+             9.999e-02   7.850e-02    -1.000    -1.105    -0.105     -1.09
O(0)          1.480e-07
   O2              7.399e-08   7.571e-08    -7.131    -7.121     0.010     30.40
Zn            1.217e-09
   Zn+2            1.192e-09   4.484e-10    -8.924    -9.348    -0.425    -24.68
   ZnOH+           1.983e-11   1.549e-11   -10.703   -10.810    -0.107     (0)  
   Zn(OH)2         5.479e-12   5.606e-12   -11.261   -11.251     0.010     (0)  
   Zn(OH)3-        7.152e-16   5.587e-16   -15.146   -15.253    -0.107     (0)  
   Zn(OH)4-2       7.493e-21   2.791e-21   -20.125   -20.554    -0.429     (0)  

------------------------------Saturation indices-------------------------------

  Phase               SI** log IAP   log K(298 K,   1 atm)

  Fix_H+           -7.50     -7.50    0.00  H+
  H2(g)           -39.52    -42.62   -3.10  H2
  H2O(g)           -1.50     -0.00    1.50  H2O
  N2(g)            -4.34     -7.52   -3.18  N2
  NH3(g)          -58.47    -56.68    1.80  NH3
  O2(g)            -4.23     -7.12   -2.89  O2
  Zn(OH)2(e)       -5.85      5.65   11.50  Zn(OH)2

**For a gas, SI = log10(fugacity). Fugacity = pressure * phi / 1 atm.
  For ideal gases, phi = 1.

------------------
End of simulation.
------------------

-------------------------------------
Reading input data for simulation 16.
-------------------------------------

	USE solution 1
	 USE surface 1
	EQUILIBRIUM_PHASES 1
	   Fix_H+  -7.7500e+00 NaOH 10.0
	END
-----------------------------------------
Beginning of batch-reaction calculations.
-----------------------------------------

Reaction step 1.

Using solution 1.	
Using surface 1.	
Using pure phase assemblage 1.	

-------------------------------Phase assemblage--------------------------------

                                                      Moles in assemblage
Phase               SI  log IAP  log K(T, P)   Initial       Final       Delta

Fix_H+           -7.75    -7.75      0.00
	 NaOH               is reactant       1.000e+01   1.000e+01   5.408e-06

------------------------------Surface composition------------------------------

Diffuse Double Layer Surface-Complexation Model

Hfo           
	  4.962e-06  Surface charge, eq
	  8.867e-03  sigma, C/m²
	  1.217e-02  psi, V
	 -4.736e-01  -F*psi/RT
	  6.228e-01  exp(-F*psi/RT)
	  6.000e+02  specific area, m²/g
	  5.400e+01  m² for   9.000e-02 g


Hfo_s         
	  5.000e-06  moles
	                                   Mole                     Log
	Species               Moles    Fraction    Molality    Molality

	Hfo_sOH           3.760e-06       0.752   3.760e-06      -5.425
	Hfo_sOH2+         6.303e-07       0.126   6.303e-07      -6.200
	Hfo_sO-           5.139e-07       0.103   5.139e-07      -6.289
	Hfo_sOZn+         9.548e-08       0.019   9.548e-08      -7.020

Hfo_w         
	  2.000e-04  moles
	                                   Mole                     Log
	Species               Moles    Fraction    Molality    Molality

	Hfo_wOH           1.533e-04       0.767   1.533e-04      -3.814
	Hfo_wOH2+         2.570e-05       0.129   2.570e-05      -4.590
	Hfo_wO-           2.096e-05       0.105   2.096e-05      -4.679
	Hfo_wOZn+         4.077e-09       0.000   4.077e-09      -8.390

-----------------------------Solution composition------------------------------

	Elements           Molality       Moles

	N                 1.000e-01   1.000e-01
	Na                1.000e-01   1.000e-01
	Zn                4.403e-10   4.403e-10

----------------------------Description of solution----------------------------

                                       pH  =   7.750      Charge balance
                                       pe  =  11.950      Adjusted to redox equilibrium
      Specific Conductance (µS/cm,  25°C)  = 9915
                          Density (g/cm³)  =   1.00265
                               Volume (L)  =   1.00583
                        Viscosity (mPa s)  =   0.89481
                        Activity of water  =   0.997
                 Ionic strength (mol/kgw)  =   1.000e-01
                       Mass of water (kg)  =   1.000e+00
                 Total alkalinity (eq/kg)  =   7.233e-07
                         Temperature (°C)  =  25.00
                  Electrical balance (eq)  =  -4.962e-06
 Percent error, 100*(Cat-|An|)/(Cat+|An|)  =  -0.00
                               Iterations  =  14
                                  Total H  = 1.110124e+02
                                  Total O  = 5.580621e+01

----------------------------Distribution of species----------------------------

                                               Log       Log       Log    mole V
   Species          Molality    Activity  Molality  Activity     Gamma   cm³/mol

   OH-             7.448e-07   5.672e-07    -6.128    -6.246    -0.118     -3.73
   H+              2.155e-08   1.778e-08    -7.667    -7.750    -0.083      0.00
   H2O             5.551e+01   9.966e-01     1.744    -0.001     0.000     18.07
H(0)          0.000e+00
   H2              0.000e+00   0.000e+00   -42.561   -42.551     0.010     28.61
N(-3)         0.000e+00
   NH4+            0.000e+00   0.000e+00   -55.017   -55.145    -0.128     18.15
   NH3             0.000e+00   0.000e+00   -56.649   -56.639     0.010     24.42
N(0)          4.260e-08
   N2              2.130e-08   2.180e-08    -7.672    -7.662     0.010     29.29
N(3)          1.481e-12
   NO2-            1.481e-12   1.116e-12   -11.829   -11.952    -0.123     25.24
N(5)          1.000e-01
   NO3-            1.000e-01   7.534e-02    -1.000    -1.123    -0.123     29.77
Na            1.000e-01
   Na+             1.000e-01   7.851e-02    -1.000    -1.105    -0.105     -1.09
O(0)          1.065e-07
   O2              5.325e-08   5.449e-08    -7.274    -7.264     0.010     30.40
Zn            4.403e-10
   Zn+2            4.217e-10   1.586e-10    -9.375    -9.800    -0.425    -24.68
   ZnOH+           1.248e-11   9.748e-12   -10.904   -11.011    -0.107     (0)  
   Zn(OH)2         6.129e-12   6.272e-12   -11.213   -11.203     0.010     (0)  
   Zn(OH)3-        1.423e-15   1.112e-15   -14.847   -14.954    -0.107     (0)  
   Zn(OH)4-2       2.651e-20   9.873e-21   -19.577   -20.006    -0.429     (0)  

------------------------------Saturation indices-------------------------------

  Phase               SI** log IAP   log K(298 K,   1 atm)

  Fix_H+           -7.75     -7.75    0.00  H+
  H2(g)           -39.45    -42.55   -3.10  H2
  H2O(g)           -1.50     -0.00    1.50  H2O
  N2(g)            -4.49     -7.66   -3.18  N2
  NH3(g)          -58.44    -56.64    1.80  NH3
  O2(g)            -4.37     -7.26   -2.89  O2
  Zn(OH)2(e)       -5.80      5.70   11.50  Zn(OH)2

**For a gas, SI = log10(fugacity). Fugacity = pressure * phi / 1 atm.
  For ideal gases, phi = 1.

------------------
End of simulation.
------------------

-------------------------------------
Reading input data for simulation 17.
-------------------------------------

	USE solution 1
	 USE surface 1
	EQUILIBRIUM_PHASES 1
	   Fix_H+           -8 NaOH 10.0
	END
-----------------------------------------
Beginning of batch-reaction calculations.
-----------------------------------------

Reaction step 1.

Using solution 1.	
Using surface 1.	
Using pure phase assemblage 1.	

-------------------------------Phase assemblage--------------------------------

                                                      Moles in assemblage
Phase               SI  log IAP  log K(T, P)   Initial       Final       Delta

Fix_H+           -8.00    -8.00      0.00
	 NaOH               is reactant       1.000e+01   1.000e+01  -1.380e-07

------------------------------Surface composition------------------------------

Diffuse Double Layer Surface-Complexation Model

Hfo           
	  1.787e-08  Surface charge, eq
	  3.193e-05  sigma, C/m²
	  4.423e-05  psi, V
	 -1.722e-03  -F*psi/RT
	  9.983e-01  exp(-F*psi/RT)
	  6.000e+02  specific area, m²/g
	  5.400e+01  m² for   9.000e-02 g


Hfo_s         
	  5.000e-06  moles
	                                   Mole                     Log
	Species               Moles    Fraction    Molality    Molality

	Hfo_sOH           3.765e-06       0.753   3.765e-06      -5.424
	Hfo_sO-           5.708e-07       0.114   5.708e-07      -6.244
	Hfo_sOH2+         5.688e-07       0.114   5.688e-07      -6.245
	Hfo_sOZn+         9.575e-08       0.019   9.575e-08      -7.019

Hfo_w         
	  2.000e-04  moles
	                                   Mole                     Log
	Species               Moles    Fraction    Molality    Molality

	Hfo_wOH           1.535e-04       0.768   1.535e-04      -3.814
	Hfo_wO-           2.328e-05       0.116   2.328e-05      -4.633
	Hfo_wOH2+         2.320e-05       0.116   2.320e-05      -4.635
	Hfo_wOZn+         4.089e-09       0.000   4.089e-09      -8.388

-----------------------------Solution composition------------------------------

	Elements           Molality       Moles

	N                 1.000e-01   1.000e-01
	Na                1.000e-01   1.000e-01
	Zn                1.628e-10   1.628e-10

----------------------------Description of solution----------------------------

                                       pH  =   8.000      Charge balance
                                       pe  =  11.665      Adjusted to redox equilibrium
      Specific Conductance (µS/cm,  25°C)  = 9916
                          Density (g/cm³)  =   1.00265
                               Volume (L)  =   1.00583
                        Viscosity (mPa s)  =   0.89481
                        Activity of water  =   0.997
                 Ionic strength (mol/kgw)  =   1.000e-01
                       Mass of water (kg)  =   1.000e+00
                 Total alkalinity (eq/kg)  =   1.312e-06
                         Temperature (°C)  =  25.00
                  Electrical balance (eq)  =  -1.787e-08
 Percent error, 100*(Cat-|An|)/(Cat+|An|)  =  -0.00
                               Iterations  =  14
                                  Total H  = 1.110124e+02
                                  Total O  = 5.580622e+01

----------------------------Distribution of species----------------------------

                                               Log       Log       Log    mole V
   Species          Molality    Activity  Molality  Activity     Gamma   cm³/mol

   OH-             1.324e-06   1.009e-06    -5.878    -5.996    -0.118     -3.73
   H+              1.212e-08   1.000e-08    -7.917    -8.000    -0.083      0.00
   H2O             5.551e+01   9.966e-01     1.744    -0.001     0.000     18.07
H(0)          0.000e+00
   H2              0.000e+00   0.000e+00   -42.489   -42.479     0.010     28.61
N(-3)         0.000e+00
   NH4+            0.000e+00   0.000e+00   -55.231   -55.359    -0.128     18.15
   NH3             0.000e+00   0.000e+00   -56.614   -56.604     0.010     24.42
N(0)          3.066e-08
   N2              1.533e-08   1.569e-08    -7.814    -7.804     0.010     29.29
N(3)          1.746e-12
   NO2-            1.746e-12   1.315e-12   -11.758   -11.881    -0.123     25.24
N(5)          1.000e-01
   NO3-            1.000e-01   7.534e-02    -1.000    -1.123    -0.123     29.77
Na            1.000e-01
   Na+             1.000e-01   7.851e-02    -1.000    -1.105    -0.105     -1.09
O(0)          7.665e-08
   O2              3.832e-08   3.922e-08    -7.417    -7.407     0.010     30.40
Zn            1.628e-10
   Zn+2            1.482e-10   5.574e-11    -9.829   -10.254    -0.425    -24.68
   ZnOH+           7.797e-12   6.091e-12   -11.108   -11.215    -0.107     (0)  
   Zn(OH)2         6.811e-12   6.969e-12   -11.167   -11.157     0.010     (0)  
   Zn(OH)3-        2.812e-15   2.196e-15   -14.551   -14.658    -0.107     (0)  
   Zn(OH)4-2       9.315e-20   3.469e-20   -19.031   -19.460    -0.429     (0)  

------------------------------Saturation indices-------------------------------

  Phase               SI** log IAP   log K(298 K,   1 atm)

  Fix_H+           -8.00     -8.00    0.00  H+
  H2(g)           -39.38    -42.48   -3.10  H2
  H2O(g)           -1.50     -0.00    1.50  H2O
  N2(g)            -4.63     -7.80   -3.18  N2
  NH3(g)          -58.40    -56.60    1.80  NH3
  O2(g)            -4.51     -7.41   -2.89  O2
  Zn(OH)2(e)       -5.76      5.74   11.50  Zn(OH)2

**For a gas, SI = log10(fugacity). Fugacity = pressure * phi / 1 atm.
  For ideal gases, phi = 1.

------------------
End of simulation.
------------------

-------------------------------------
Reading input data for simulation 18.
-------------------------------------

	END
------------------
End of simulation.
------------------

-------------------------------------
Reading input data for simulation 19.
-------------------------------------

