WARNING: Database file from DATABASE keyword is used; command line argument ignored.
   Input file: exch_related
  Output file: exch_related.out
Database file: ../database/phreeqc.dat

------------------
Reading data base.
------------------

	SOLUTION_MASTER_SPECIES
	SOLUTION_SPECIES
	PHASES
	EXCHANGE_MASTER_SPECIES
	EXCHANGE_SPECIES
	SURFACE_MASTER_SPECIES
	SURFACE_SPECIES
	RATES
	END
------------------------------------
Reading input data for simulation 1.
------------------------------------

	DATABASE ../database/phreeqc.dat
	SELECTED_OUTPUT 101
	    file                 exch_related_101.sel
	USER_PUNCH 101
	    headings Mu SC
	    start
	10 PUNCH STR_F$(MU, 20, 12)
	20 PUNCH STR_F$(SC, 20, 10)
	    end
	knobs
		logfile
	solution 1
	equilibrium_phases 1
		Ca-Montmorillonite	0.0	0.01
	save solution 1
	save equilibrium_phases 1
	end
-------------------------------------------
Beginning of initial solution calculations.
-------------------------------------------

Initial solution 1.	

-----------------------------Solution composition------------------------------

	Elements           Molality       Moles

	Pure water     

----------------------------Description of solution----------------------------

                                       pH  =   7.000    
                                       pe  =   4.000    
      Specific Conductance (µS/cm,  25°C)  = 0
                          Density (g/cm³)  =   0.99704
                               Volume (L)  =   1.00297
                        Activity of water  =   1.000
                 Ionic strength (mol/kgw)  =   1.007e-07
                       Mass of water (kg)  =   1.000e+00
                 Total alkalinity (eq/kg)  =   1.217e-09
                         Temperature (°C)  =  25.00
                  Electrical balance (eq)  =  -1.217e-09
 Percent error, 100*(Cat-|An|)/(Cat+|An|)  =  -0.60
                               Iterations  =   0
                                  Total H  = 1.110124e+02
                                  Total O  = 5.550622e+01

----------------------------Distribution of species----------------------------

                                               Log       Log       Log    mole V
   Species          Molality    Activity  Molality  Activity     Gamma   cm³/mol

   OH-             1.013e-07   1.012e-07    -6.995    -6.995    -0.000     -4.14
   H+              1.001e-07   1.000e-07    -7.000    -7.000    -0.000      0.00
   H2O             5.551e+01   1.000e+00     1.744     0.000     0.000     18.07
H(0)          1.416e-25
   H2              7.079e-26   7.079e-26   -25.150   -25.150     0.000     28.61
O(0)          0.000e+00
   O2              0.000e+00   0.000e+00   -42.080   -42.080     0.000     30.40

------------------------------Saturation indices-------------------------------

  Phase               SI** log IAP   log K(298 K,   1 atm)

  H2(g)           -22.05    -25.15   -3.10  H2
  H2O(g)           -1.50      0.00    1.50  H2O
  O2(g)           -39.19    -42.08   -2.89  O2

**For a gas, SI = log10(fugacity). Fugacity = pressure * phi / 1 atm.
  For ideal gases, phi = 1.

-----------------------------------------
Beginning of batch-reaction calculations.
-----------------------------------------

Reaction step 1.

Using solution 1.	
Using pure phase assemblage 1.	

-------------------------------Phase assemblage--------------------------------

                                                      Moles in assemblage
Phase               SI  log IAP  log K(T, P)   Initial       Final       Delta

Ca-Montmorillonite   -0.00   -45.03    -45.03    1.000e-02   9.997e-03  -2.610e-06

-----------------------------Solution composition------------------------------

	Elements           Molality       Moles

	Al                6.082e-06   6.082e-06
	Ca                4.307e-07   4.307e-07
	Si                9.580e-06   9.580e-06

----------------------------Description of solution----------------------------

                                       pH  =   6.400      Charge balance
                                       pe  =  11.618      Adjusted to redox equilibrium
      Specific Conductance (µS/cm,  25°C)  = 0
                          Density (g/cm³)  =   0.99704
                               Volume (L)  =   1.00297
                        Activity of water  =   1.000
                 Ionic strength (mol/kgw)  =   3.926e-06
                       Mass of water (kg)  =   1.000e+00
                 Total alkalinity (eq/kg)  =   1.911e-05
                         Temperature (°C)  =  25.00
                  Electrical balance (eq)  =  -1.217e-09
 Percent error, 100*(Cat-|An|)/(Cat+|An|)  =  -0.02
                               Iterations  =  12
                                  Total H  = 1.110124e+02
                                  Total O  = 5.550625e+01

----------------------------Distribution of species----------------------------

                                               Log       Log       Log    mole V
   Species          Molality    Activity  Molality  Activity     Gamma   cm³/mol

   H+              3.991e-07   3.981e-07    -6.399    -6.400    -0.001      0.00
   OH-             2.548e-08   2.542e-08    -7.594    -7.595    -0.001     -4.14
   H2O             5.551e+01   1.000e+00     1.744    -0.000     0.000     18.07
Al            6.082e-06
   Al(OH)4-        3.357e-06   3.349e-06    -5.474    -5.475    -0.001     (0)  
   Al(OH)2+        1.916e-06   1.912e-06    -5.718    -5.719    -0.001     (0)  
   Al(OH)3         7.074e-07   7.074e-07    -6.150    -6.150     0.000     (0)  
   AlOH+2          9.801e-08   9.710e-08    -7.009    -7.013    -0.004    -27.87
   Al+3            3.974e-09   3.892e-09    -8.401    -8.410    -0.009    -42.52
Ca            4.307e-07
   Ca+2            4.307e-07   4.267e-07    -6.366    -6.370    -0.004    -18.25
   CaOH+           1.783e-13   1.779e-13   -12.749   -12.750    -0.001     (0)  
H(0)          1.304e-39
   H2              6.520e-40   6.520e-40   -39.186   -39.186     0.000     28.61
O(0)          1.961e-14
   O2              9.806e-15   9.806e-15   -14.009   -14.009     0.000     30.40
Si            9.580e-06
   H4SiO4          9.576e-06   9.576e-06    -5.019    -5.019     0.000     52.08
   H3SiO4-         3.555e-09   3.546e-09    -8.449    -8.450    -0.001     27.95
   H2SiO4-2        6.116e-16   6.059e-16   -15.214   -15.218    -0.004     (0)  

------------------------------Saturation indices-------------------------------

  Phase               SI** log IAP   log K(298 K,   1 atm)

  Al(OH)3(a)       -0.01     10.79   10.80  Al(OH)3
  Anorthite        -7.64    -27.36  -19.71  CaAl2Si2O8
  Ca-Montmorillonite  -0.00    -45.03  -45.03  Ca0.165Al2.33Si3.67O10(OH)2
  Chalcedony       -1.47     -5.02   -3.55  SiO2
  Gibbsite          2.68     10.79    8.11  Al(OH)3
  H2(g)           -36.08    -39.19   -3.10  H2
  H2O(g)           -1.50     -0.00    1.50  H2O
  Kaolinite         4.11     11.54    7.43  Al2Si2O5(OH)4
  O2(g)           -11.12    -14.01   -2.89  O2
  Quartz           -1.04     -5.02   -3.98  SiO2
  SiO2(a)          -2.31     -5.02   -2.71  SiO2

**For a gas, SI = log10(fugacity). Fugacity = pressure * phi / 1 atm.
  For ideal gases, phi = 1.

------------------
End of simulation.
------------------

------------------------------------
Reading input data for simulation 2.
------------------------------------

	reaction 1
		HCl	1.0
		0.25	moles
	exchange 1
		Ca.5X	Ca-Montmorillonite	0.33
		equilibrate	solution 1
	use solution 1
	use equilibrium_phases 1
	save solution 2
	save exchange 2
	save equilibrium_phases 2
	end
-------------------------------------------------------
Beginning of initial exchange-composition calculations.
-------------------------------------------------------

Exchange 1.	

X                3.299e-03 mol	[0.33 (mol Ca.5X)/(mol Ca-Montmorillonite)]

	                               Equiv-    Equivalent      Log 
	Species             Moles      alents      Fraction     Gamma

	CaX2              6.174e-04   1.235e-03   3.743e-01    -0.004
	AlX3              5.742e-04   1.723e-03   5.221e-01    -0.009
	AlOHX2            1.709e-04   3.417e-04   1.036e-01     0.001

-----------------------------------------
Beginning of batch-reaction calculations.
-----------------------------------------

Reaction step 1.

Using solution 1.	Solution after simulation 1.
Using exchange 1.	Exchange assemblage after simulation 2.
Using pure phase assemblage 1.	Pure-phase assemblage after simulation 1.
Using reaction 1.	

Reaction 1.	

	  2.500e-01 moles of the following reaction have been added:

	                 Relative
	Reactant            moles

	HCl                  1.00000

	                 Relative
	Element             moles
	Cl                   1.00000
	H                    1.00000

-------------------------------Phase assemblage--------------------------------

                                                      Moles in assemblage
Phase               SI  log IAP  log K(T, P)   Initial       Final       Delta

Ca-Montmorillonite  -13.28   -58.31    -45.03    9.997e-03           0  -9.997e-03

-----------------------------Exchange composition------------------------------

X                1.249e-16 mol	[0.33 (mol Ca.5X)/(mol Ca-Montmorillonite)]

	                               Equiv-    Equivalent      Log 
	Species             Moles      alents      Fraction     Gamma

	AlX3              4.061e-17   1.218e-16   9.755e-01    -0.973
	CaX2              1.532e-18   3.064e-18   2.453e-02    -0.546
	AlOHX2            4.084e-22   8.168e-22   6.539e-06     0.135

-----------------------------Solution composition------------------------------

	Elements           Molality       Moles

	Al                2.406e-02   2.405e-02
	Ca                6.181e-04   6.178e-04
	Cl                2.501e-01   2.500e-01
	Si                3.672e-02   3.670e-02

----------------------------Description of solution----------------------------

                                       pH  =   0.861      Charge balance
                                       pe  =  17.165      Adjusted to redox equilibrium
      Specific Conductance (µS/cm,  25°C)  = 70994
                          Density (g/cm³)  =   1.00467
                               Volume (L)  =   1.00805
                        Activity of water  =   0.992
                 Ionic strength (mol/kgw)  =   3.229e-01
                       Mass of water (kg)  =   9.995e-01
                 Total alkalinity (eq/kg)  =  -1.767e-01
                         Temperature (°C)  =  25.00
                  Electrical balance (eq)  =  -1.217e-09
 Percent error, 100*(Cat-|An|)/(Cat+|An|)  =  -0.00
                               Iterations  =  15
                                  Total H  = 1.112826e+02
                                  Total O  = 5.562639e+01

----------------------------Distribution of species----------------------------

                                               Log       Log       Log    mole V
   Species          Molality    Activity  Molality  Activity     Gamma   cm³/mol

   H+              1.767e-01   1.378e-01    -0.753    -0.861    -0.108      0.00
   OH-             1.091e-13   7.286e-14   -12.962   -13.138    -0.175     -3.25
   H2O             5.551e+01   9.917e-01     1.744    -0.004     0.000     18.07
Al            2.406e-02
   Al+3            2.406e-02   2.558e-03    -1.619    -2.592    -0.973    -40.61
   AlOH+2          6.912e-07   1.829e-07    -6.160    -6.738    -0.577    -26.81
   Al(OH)2+        1.439e-11   1.032e-11   -10.842   -10.986    -0.144     (0)  
   Al(OH)3         1.016e-17   1.095e-17   -16.993   -16.961     0.032     (0)  
   Al(OH)4-        2.135e-22   1.485e-22   -21.671   -21.828    -0.158     (0)  
Ca            6.181e-04
   Ca+2            6.181e-04   1.757e-04    -3.209    -3.755    -0.546    -17.03
   CaOH+           2.867e-16   2.099e-16   -15.543   -15.678    -0.135     (0)  
Cl            2.501e-01
   Cl-             2.501e-01   1.702e-01    -0.602    -0.769    -0.167     18.57
H(0)          1.167e-39
   H2              5.833e-40   6.283e-40   -39.234   -39.202     0.032     28.61
O(0)          1.928e-14
   O2              9.641e-15   1.039e-14   -14.016   -13.984     0.032     30.40
Si            3.672e-02
   H4SiO4          3.672e-02   3.955e-02    -1.435    -1.403     0.032     52.08
   H3SiO4-         6.203e-11   4.233e-11   -10.207   -10.373    -0.166     28.48
   H2SiO4-2        7.898e-23   2.090e-23   -22.102   -22.680    -0.577     (0)  

------------------------------Saturation indices-------------------------------

  Phase               SI** log IAP   log K(298 K,   1 atm)

  Al(OH)3(a)      -10.82     -0.02   10.80  Al(OH)3
  Anorthite       -30.47    -50.19  -19.71  CaAl2Si2O8
  Ca-Montmorillonite -13.28    -58.31  -45.03  Ca0.165Al2.33Si3.67O10(OH)2
  Chalcedony        2.16     -1.40   -3.55  SiO2
  Gibbsite         -8.13     -0.02    8.11  Al(OH)3
  H2(g)           -36.10    -39.20   -3.10  H2
  H2O(g)           -1.51     -0.00    1.50  H2O
  Kaolinite       -10.26     -2.83    7.43  Al2Si2O5(OH)4
  O2(g)           -11.09    -13.98   -2.89  O2
  Quartz            2.58     -1.40   -3.98  SiO2
  SiO2(a)           1.32     -1.40   -2.71  SiO2

**For a gas, SI = log10(fugacity). Fugacity = pressure * phi / 1 atm.
  For ideal gases, phi = 1.

------------------
End of simulation.
------------------

------------------------------------
Reading input data for simulation 3.
------------------------------------

	use solution 2
	use equilibrium_phases 2
	use exchange 2
	end
-----------------------------------------
Beginning of batch-reaction calculations.
-----------------------------------------

Reaction step 1.

Using solution 2.	Solution after simulation 2.
Using exchange 2.	Exchange assemblage after simulation 2.
Using pure phase assemblage 2.	Pure-phase assemblage after simulation 2.

-------------------------------Phase assemblage--------------------------------

                                                      Moles in assemblage
Phase               SI  log IAP  log K(T, P)   Initial       Final       Delta

Ca-Montmorillonite  -13.28   -58.31    -45.03    0.000e+00           0   0.000e+00

-----------------------------Exchange composition------------------------------

X                1.249e-16 mol	[0.33 (mol Ca.5X)/(mol Ca-Montmorillonite)]

	                               Equiv-    Equivalent      Log 
	Species             Moles      alents      Fraction     Gamma

	AlX3              4.061e-17   1.218e-16   9.755e-01    -0.973
	CaX2              1.532e-18   3.064e-18   2.453e-02    -0.546
	AlOHX2            4.084e-22   8.168e-22   6.539e-06     0.135

-----------------------------Solution composition------------------------------

	Elements           Molality       Moles

	Al                2.406e-02   2.405e-02
	Ca                6.181e-04   6.178e-04
	Cl                2.501e-01   2.500e-01
	Si                3.672e-02   3.670e-02

----------------------------Description of solution----------------------------

                                       pH  =   0.861      Charge balance
                                       pe  =  17.209      Adjusted to redox equilibrium
      Specific Conductance (µS/cm,  25°C)  = 70994
                          Density (g/cm³)  =   1.00467
                               Volume (L)  =   1.00805
                        Activity of water  =   0.992
                 Ionic strength (mol/kgw)  =   3.229e-01
                       Mass of water (kg)  =   9.995e-01
                 Total alkalinity (eq/kg)  =  -1.767e-01
                         Temperature (°C)  =  25.00
                  Electrical balance (eq)  =  -1.216e-09
 Percent error, 100*(Cat-|An|)/(Cat+|An|)  =  -0.00
                               Iterations  =   1
                                  Total H  = 1.112826e+02
                                  Total O  = 5.562639e+01

----------------------------Distribution of species----------------------------

                                               Log       Log       Log    mole V
   Species          Molality    Activity  Molality  Activity     Gamma   cm³/mol

   H+              1.767e-01   1.378e-01    -0.753    -0.861    -0.108      0.00
   OH-             1.091e-13   7.286e-14   -12.962   -13.138    -0.175     -3.25
   H2O             5.551e+01   9.917e-01     1.744    -0.004     0.000     18.07
Al            2.406e-02
   Al+3            2.406e-02   2.558e-03    -1.619    -2.592    -0.973    -40.61
   AlOH+2          6.912e-07   1.829e-07    -6.160    -6.738    -0.577    -26.81
   Al(OH)2+        1.439e-11   1.032e-11   -10.842   -10.986    -0.144     (0)  
   Al(OH)3         1.016e-17   1.095e-17   -16.993   -16.961     0.032     (0)  
   Al(OH)4-        2.135e-22   1.485e-22   -21.671   -21.828    -0.158     (0)  
Ca            6.181e-04
   Ca+2            6.181e-04   1.757e-04    -3.209    -3.755    -0.546    -17.03
   CaOH+           2.867e-16   2.099e-16   -15.543   -15.678    -0.135     (0)  
Cl            2.501e-01
   Cl-             2.501e-01   1.702e-01    -0.602    -0.769    -0.167     18.57
H(0)          9.525e-40
   H2              4.763e-40   5.130e-40   -39.322   -39.290     0.032     28.61
O(0)          2.892e-14
   O2              1.446e-14   1.558e-14   -13.840   -13.808     0.032     30.40
Si            3.672e-02
   H4SiO4          3.672e-02   3.955e-02    -1.435    -1.403     0.032     52.08
   H3SiO4-         6.203e-11   4.233e-11   -10.207   -10.373    -0.166     28.48
   H2SiO4-2        7.898e-23   2.090e-23   -22.102   -22.680    -0.577     (0)  

------------------------------Saturation indices-------------------------------

  Phase               SI** log IAP   log K(298 K,   1 atm)

  Al(OH)3(a)      -10.82     -0.02   10.80  Al(OH)3
  Anorthite       -30.47    -50.19  -19.71  CaAl2Si2O8
  Ca-Montmorillonite -13.28    -58.31  -45.03  Ca0.165Al2.33Si3.67O10(OH)2
  Chalcedony        2.16     -1.40   -3.55  SiO2
  Gibbsite         -8.13     -0.02    8.11  Al(OH)3
  H2(g)           -36.19    -39.29   -3.10  H2
  H2O(g)           -1.51     -0.00    1.50  H2O
  Kaolinite       -10.26     -2.83    7.43  Al2Si2O5(OH)4
  O2(g)           -10.92    -13.81   -2.89  O2
  Quartz            2.58     -1.40   -3.98  SiO2
  SiO2(a)           1.32     -1.40   -2.71  SiO2

**For a gas, SI = log10(fugacity). Fugacity = pressure * phi / 1 atm.
  For ideal gases, phi = 1.

------------------
End of simulation.
------------------

------------------------------------
Reading input data for simulation 4.
------------------------------------

	solution 1
	equilibrium_phases 1
		Ca-Montmorillonite	0.0	0.0
	save solution 1
	end
-------------------------------------------
Beginning of initial solution calculations.
-------------------------------------------

Initial solution 1.	

-----------------------------Solution composition------------------------------

	Elements           Molality       Moles

	Pure water     

----------------------------Description of solution----------------------------

                                       pH  =   7.000    
                                       pe  =   4.000    
      Specific Conductance (µS/cm,  25°C)  = 0
                          Density (g/cm³)  =   0.99704
                               Volume (L)  =   1.00297
                        Activity of water  =   1.000
                 Ionic strength (mol/kgw)  =   1.007e-07
                       Mass of water (kg)  =   1.000e+00
                 Total alkalinity (eq/kg)  =   1.217e-09
                         Temperature (°C)  =  25.00
                  Electrical balance (eq)  =  -1.217e-09
 Percent error, 100*(Cat-|An|)/(Cat+|An|)  =  -0.60
                               Iterations  =   0
                                  Total H  = 1.110124e+02
                                  Total O  = 5.550622e+01

----------------------------Distribution of species----------------------------

                                               Log       Log       Log    mole V
   Species          Molality    Activity  Molality  Activity     Gamma   cm³/mol

   OH-             1.013e-07   1.012e-07    -6.995    -6.995    -0.000     -4.14
   H+              1.001e-07   1.000e-07    -7.000    -7.000    -0.000      0.00
   H2O             5.551e+01   1.000e+00     1.744     0.000     0.000     18.07
H(0)          1.416e-25
   H2              7.079e-26   7.079e-26   -25.150   -25.150     0.000     28.61
O(0)          0.000e+00
   O2              0.000e+00   0.000e+00   -42.080   -42.080     0.000     30.40

------------------------------Saturation indices-------------------------------

  Phase               SI** log IAP   log K(298 K,   1 atm)

  H2(g)           -22.05    -25.15   -3.10  H2
  H2O(g)           -1.50      0.00    1.50  H2O
  O2(g)           -39.19    -42.08   -2.89  O2

**For a gas, SI = log10(fugacity). Fugacity = pressure * phi / 1 atm.
  For ideal gases, phi = 1.

-----------------------------------------
Beginning of batch-reaction calculations.
-----------------------------------------

Reaction step 1.

WARNING: Element Al is contained in Ca-Montmorillonite (which has 0.0 mass),	
but is not in solution or other phases.
WARNING: Element Ca is contained in Ca-Montmorillonite (which has 0.0 mass),	
but is not in solution or other phases.
WARNING: Element Si is contained in Ca-Montmorillonite (which has 0.0 mass),	
but is not in solution or other phases.
WARNING: Element in phase, Ca-Montmorillonite, is not in model.
WARNING: Element in phase, Ca-Montmorillonite, is not in model.
WARNING: Element in phase, Ca-Montmorillonite, is not in model.
Using solution 1.	
Using pure phase assemblage 1.	

-------------------------------Phase assemblage--------------------------------

                                                      Moles in assemblage
Phase               SI  log IAP  log K(T, P)   Initial       Final       Delta

Ca-Montmorillonite   Element not present.    0.000e+00           0   0.000e+00

-----------------------------Solution composition------------------------------

	Elements           Molality       Moles

	Pure water     

----------------------------Description of solution----------------------------

                                       pH  =   7.000      Charge balance
                                       pe  =  11.691      Adjusted to redox equilibrium
      Specific Conductance (µS/cm,  25°C)  = 0
                          Density (g/cm³)  =   0.99704
                               Volume (L)  =   1.00297
                        Activity of water  =   1.000
                 Ionic strength (mol/kgw)  =   1.006e-07
                       Mass of water (kg)  =   1.000e+00
                 Total alkalinity (eq/kg)  =   1.217e-09
                         Temperature (°C)  =  25.00
                  Electrical balance (eq)  =  -1.217e-09
 Percent error, 100*(Cat-|An|)/(Cat+|An|)  =  -0.60
                               Iterations  =   7
                                  Total H  = 1.110124e+02
                                  Total O  = 5.550622e+01

----------------------------Distribution of species----------------------------

                                               Log       Log       Log    mole V
   Species          Molality    Activity  Molality  Activity     Gamma   cm³/mol

   OH-             1.013e-07   1.012e-07    -6.995    -6.995    -0.000     -4.14
   H+              1.000e-07   1.000e-07    -7.000    -7.000    -0.000      0.00
   H2O             5.551e+01   1.000e+00     1.744    -0.000     0.000     18.07
H(0)          0.000e+00
   H2              0.000e+00   0.000e+00   -40.533   -40.533     0.000     28.61
O(0)          9.700e-12
   O2              4.850e-12   4.850e-12   -11.314   -11.314     0.000     30.40

------------------------------Saturation indices-------------------------------

  Phase               SI** log IAP   log K(298 K,   1 atm)

  H2(g)           -37.43    -40.53   -3.10  H2
  H2O(g)           -1.50     -0.00    1.50  H2O
  O2(g)            -8.42    -11.31   -2.89  O2

**For a gas, SI = log10(fugacity). Fugacity = pressure * phi / 1 atm.
  For ideal gases, phi = 1.

------------------
End of simulation.
------------------

------------------------------------
Reading input data for simulation 5.
------------------------------------

	reaction 1
		Ca-Montmorillonite	1
		0.1	moles
	exchange 1
		Ca.5X	Ca-Montmorillonite	0.33
		equilibrate	solution 	1
	use solution 1
	use equilibrium_phases 1
	end
-------------------------------------------------------
Beginning of initial exchange-composition calculations.
-------------------------------------------------------

Exchange 1.	


-----------------------------------------
Beginning of batch-reaction calculations.
-----------------------------------------

Reaction step 1.

Using solution 1.	Solution after simulation 4.
Using exchange 1.	Exchange assemblage after simulation 5.
Using pure phase assemblage 1.	
Using reaction 1.	

Reaction 1.	

	  1.000e-01 moles of the following reaction have been added:

	                 Relative
	Reactant            moles

	Ca-Montmorillonite      1.00000

	                 Relative
	Element             moles
	Al                   2.33000
	Ca                   0.16500
	H                    2.00000
	O                   12.00000
	Si                   3.67000

-------------------------------Phase assemblage--------------------------------

                                                      Moles in assemblage
Phase               SI  log IAP  log K(T, P)   Initial       Final       Delta

Ca-Montmorillonite   -0.00   -45.03    -45.03    0.000e+00   1.000e-01   1.000e-01

-----------------------------Exchange composition------------------------------

X                3.300e-02 mol	[0.33 (mol Ca.5X)/(mol Ca-Montmorillonite)]

	                               Equiv-    Equivalent      Log 
	Species             Moles      alents      Fraction     Gamma

	CaX2              1.650e-02   3.299e-02   9.998e-01    -0.007
	AlOHX2            2.236e-06   4.472e-06   1.355e-04     0.002
	AlX3              5.275e-07   1.582e-06   4.795e-05    -0.015

-----------------------------Solution composition------------------------------

	Elements           Molality       Moles

	Al                7.656e-06   7.656e-06
	Ca                3.765e-06   3.765e-06
	Si                1.641e-05   1.641e-05

----------------------------Description of solution----------------------------

                                       pH  =   7.303      Charge balance
                                       pe  =  11.388      Adjusted to redox equilibrium
      Specific Conductance (µS/cm,  25°C)  = 0
                          Density (g/cm³)  =   0.99704
                               Volume (L)  =   1.00297
                        Activity of water  =   1.000
                 Ionic strength (mol/kgw)  =   1.141e-05
                       Mass of water (kg)  =   1.000e+00
                 Total alkalinity (eq/kg)  =   3.050e-05
                         Temperature (°C)  =  25.00
                  Electrical balance (eq)  =  -1.217e-09
 Percent error, 100*(Cat-|An|)/(Cat+|An|)  =  -0.01
                               Iterations  =  25
                                  Total H  = 1.110124e+02
                                  Total O  = 5.550627e+01

----------------------------Distribution of species----------------------------

                                               Log       Log       Log    mole V
   Species          Molality    Activity  Molality  Activity     Gamma   cm³/mol

   OH-             2.043e-07   2.035e-07    -6.690    -6.691    -0.002     -4.14
   H+              4.994e-08   4.974e-08    -7.302    -7.303    -0.002      0.00
   H2O             5.551e+01   1.000e+00     1.744    -0.000     0.000     18.07
Al            7.656e-06
   Al(OH)4-        7.396e-06   7.366e-06    -5.131    -5.133    -0.002     (0)  
   Al(OH)3         1.944e-07   1.944e-07    -6.711    -6.711     0.000     (0)  
   Al(OH)2+        6.589e-08   6.563e-08    -7.181    -7.183    -0.002     (0)  
   AlOH+2          4.232e-10   4.165e-10    -9.373    -9.380    -0.007    -27.86
   Al+3            2.161e-12   2.086e-12   -11.665   -11.681    -0.015    -42.51
Ca            3.765e-06
   Ca+2            3.765e-06   3.706e-06    -5.424    -5.431    -0.007    -18.24
   CaOH+           1.241e-11   1.237e-11   -10.906   -10.908    -0.002     (0)  
H(0)          0.000e+00
   H2              0.000e+00   0.000e+00   -40.533   -40.533     0.000     28.61
O(0)          9.696e-12
   O2              4.848e-12   4.848e-12   -11.314   -11.314     0.000     30.40
Si            1.641e-05
   H4SiO4          1.636e-05   1.636e-05    -4.786    -4.786     0.000     52.08
   H3SiO4-         4.870e-08   4.851e-08    -7.312    -7.314    -0.002     27.95
   H2SiO4-2        6.739e-14   6.634e-14   -13.171   -13.178    -0.007     (0)  

------------------------------Saturation indices-------------------------------

  Phase               SI** log IAP   log K(298 K,   1 atm)

  Al(OH)3(a)       -0.57     10.23   10.80  Al(OH)3
  Anorthite        -5.55    -25.27  -19.71  CaAl2Si2O8
  Ca-Montmorillonite  -0.00    -45.03  -45.03  Ca0.165Al2.33Si3.67O10(OH)2
  Chalcedony       -1.23     -4.79   -3.55  SiO2
  Gibbsite          2.12     10.23    8.11  Al(OH)3
  H2(g)           -37.43    -40.53   -3.10  H2
  H2O(g)           -1.50     -0.00    1.50  H2O
  Kaolinite         3.45     10.89    7.43  Al2Si2O5(OH)4
  O2(g)            -8.42    -11.31   -2.89  O2
  Quartz           -0.81     -4.79   -3.98  SiO2
  SiO2(a)          -2.07     -4.79   -2.71  SiO2

**For a gas, SI = log10(fugacity). Fugacity = pressure * phi / 1 atm.
  For ideal gases, phi = 1.

------------------
End of simulation.
------------------

------------------------------------
Reading input data for simulation 6.
------------------------------------

