   Input file: exch_kin_related
  Output file: exch_kin_related.out
Database file: ../database/phreeqc.dat

------------------
Reading data base.
------------------

	SOLUTION_MASTER_SPECIES
	SOLUTION_SPECIES
	PHASES
	EXCHANGE_MASTER_SPECIES
	EXCHANGE_SPECIES
	SURFACE_MASTER_SPECIES
	SURFACE_SPECIES
	RATES
	END
------------------------------------
Reading input data for simulation 1.
------------------------------------

	DATABASE ../database/phreeqc.dat
	RATES
	Pyrolusite
		start
	20      rem   1 hour half life
	40	moles = log(0.5) / 3600 * m * time
	50      if (moles > m) then moles = m
	60      rem print -moles
	200	save -moles
		end
	SOLUTION 1
		pH	7.0
		pe	8.0
		temp	20.0
		Ca	4.5
		Cl	9.0	charge
	SOLUTION 0 # FeCl2 injected solution
		pH	6.0
		pe	0.0
		temp	20.0
		Fe	15.5   # Analyzed: 14.55 
		Cl	31.	charge
		Mn	1e-8
		Al	1.e-8
	EXCHANGE 1
		MnX2	pyrolusite 		kine	.1
	KINETICS 1
		Pyrolusite
			formula MnO2H2O 1.0 NaF 1.0
			m	1
		steps	3600
		step_divide	100
	USE solution 0
	END
-------------------------------------------
Beginning of initial solution calculations.
-------------------------------------------

Initial solution 0.	

-----------------------------Solution composition------------------------------

	Elements           Molality       Moles

	Al                1.000e-11   1.000e-11
	Cl                3.100e-02   3.100e-02  Charge balance
	Fe                1.550e-02   1.550e-02
	Mn                1.000e-11   1.000e-11

----------------------------Description of solution----------------------------

                                       pH  =   6.000    
                                       pe  =   0.000    
                        Activity of water  =   0.999
                           Ionic strength  =   4.587e-02
                       Mass of water (kg)  =   1.000e+00
                 Total alkalinity (eq/kg)  =   8.094e-07
                    Total carbon (mol/kg)  =   0.000e+00
                       Total CO2 (mol/kg)  =   0.000e+00
                      Temperature (deg C)  =  20.000
                  Electrical balance (eq)  =  -9.424e-17
 Percent error, 100*(Cat-|An|)/(Cat+|An|)  =   0.00
                               Iterations  =   9
                                  Total H  = 1.110124e+02
                                  Total O  = 5.550622e+01

----------------------------Distribution of species----------------------------

                                                   Log       Log         Log 
   Species                 Molality    Activity  Molality  Activity     Gamma

   H+                     1.165e-06   1.000e-06    -5.934    -6.000    -0.066
   OH-                    8.286e-09   6.784e-09    -8.082    -8.169    -0.087
   H2O                    5.551e+01   9.992e-01     1.744     0.000     0.000
Al               1.000e-11
   Al(OH)2+               5.864e-12   4.853e-12   -11.232   -11.314    -0.082
   AlOH+2                 2.070e-12   9.715e-13   -11.684   -12.013    -0.329
   Al(OH)4-               1.046e-12   8.654e-13   -11.981   -12.063    -0.082
   Al+3                   5.374e-13   1.360e-13   -12.270   -12.867    -0.597
   Al(OH)3                4.832e-13   4.883e-13   -12.316   -12.311     0.005
Cl               3.100e-02
   Cl-                    3.068e-02   2.516e-02    -1.513    -1.599    -0.086
   FeCl+                  3.160e-04   2.615e-04    -3.500    -3.582    -0.082
   MnCl+                  5.784e-13   4.787e-13   -12.238   -12.320    -0.082
   MnCl2                  5.203e-15   5.258e-15   -14.284   -14.279     0.005
   FeCl+2                 7.500e-16   3.520e-16   -15.125   -15.453    -0.329
   FeCl2+                 5.616e-17   4.648e-17   -16.251   -16.333    -0.082
   MnCl3-                 4.403e-17   3.644e-17   -16.356   -16.438    -0.082
   FeCl3                  1.157e-19   1.169e-19   -18.937   -18.932     0.005
Fe(2)            1.550e-02
   Fe+2                   1.518e-02   7.530e-03    -1.819    -2.123    -0.305
   FeCl+                  3.160e-04   2.615e-04    -3.500    -3.582    -0.082
   FeOH+                  1.966e-06   1.627e-06    -5.706    -5.789    -0.082
Fe(3)            9.360e-10
   Fe(OH)2+               8.579e-10   7.101e-10    -9.067    -9.149    -0.082
   Fe(OH)3                7.246e-11   7.323e-11   -10.140   -10.135     0.005
   FeOH+2                 5.546e-12   2.603e-12   -11.256   -11.585    -0.329
   Fe(OH)4-               6.573e-14   5.440e-14   -13.182   -13.264    -0.082
   Fe+3                   2.151e-15   5.442e-16   -14.667   -15.264    -0.597
   FeCl+2                 7.500e-16   3.520e-16   -15.125   -15.453    -0.329
   FeCl2+                 5.616e-17   4.648e-17   -16.251   -16.333    -0.082
   FeCl3                  1.157e-19   1.169e-19   -18.937   -18.932     0.005
   Fe2(OH)2+4             4.639e-21   2.250e-22   -20.334   -21.648    -1.314
   Fe3(OH)4+5             6.037e-27   5.336e-29   -26.219   -28.273    -2.054
H(0)             1.474e-15
   H2                     7.369e-16   7.447e-16   -15.133   -15.128     0.005
Mn(2)            1.000e-11
   Mn+2                   9.416e-12   4.670e-12   -11.026   -11.331    -0.305
   MnCl+                  5.784e-13   4.787e-13   -12.238   -12.320    -0.082
   MnCl2                  5.203e-15   5.258e-15   -14.284   -14.279     0.005
   MnOH+                  9.575e-17   7.925e-17   -16.019   -16.101    -0.082
   MnCl3-                 4.403e-17   3.644e-17   -16.356   -16.438    -0.082
Mn(3)            3.768e-37
   Mn+3                   3.768e-37   6.868e-38   -36.424   -37.163    -0.739
O(0)             0.000e+00
   O2                     0.000e+00   0.000e+00   -63.770   -63.766     0.005

------------------------------Saturation indices-------------------------------

	Phase               SI log IAP  log KT

	Al(OH)3(a)       -6.00    5.13   11.13  Al(OH)3
	Fe(OH)3(a)       -2.16    2.73    4.89  Fe(OH)3
	Gibbsite         -3.26    5.13    8.40  Al(OH)3
	Goethite          3.55    2.74   -0.82  FeOOH
	H2(g)           -12.00  -15.13   -3.13  H2
	H2O(g)           -1.64    0.00    1.64  H2O
	Hausmannite     -48.28   14.01   62.29  Mn3O4
	Hematite          9.09    5.47   -3.62  Fe2O3
	Manganite       -18.67    6.67   25.34  MnOOH
	O2(g)           -60.91  -63.77   -2.85  O2
	Pyrochroite     -14.53    0.67   15.20  Mn(OH)2
	Pyrolusite      -29.53   12.67   42.19  MnO2

Initial solution 1.	

-----------------------------Solution composition------------------------------

	Elements           Molality       Moles

	Ca                4.500e-03   4.500e-03
	Cl                9.000e-03   9.000e-03  Charge balance

----------------------------Description of solution----------------------------

                                       pH  =   7.000    
                                       pe  =   8.000    
                        Activity of water  =   1.000
                           Ionic strength  =   1.350e-02
                       Mass of water (kg)  =   1.000e+00
                 Total alkalinity (eq/kg)  =  -2.876e-08
                    Total carbon (mol/kg)  =   0.000e+00
                       Total CO2 (mol/kg)  =   0.000e+00
                      Temperature (deg C)  =  20.000
                  Electrical balance (eq)  =  -3.007e-18
 Percent error, 100*(Cat-|An|)/(Cat+|An|)  =   0.00
                               Iterations  =   9
                                  Total H  = 1.110124e+02
                                  Total O  = 5.550622e+01

----------------------------Distribution of species----------------------------

                                                   Log       Log         Log 
   Species                 Molality    Activity  Molality  Activity     Gamma

   H+                     1.106e-07   1.000e-07    -6.956    -7.000    -0.044
   OH-                    7.647e-08   6.788e-08    -7.116    -7.168    -0.052
   H2O                    5.551e+01   9.998e-01     1.744     0.000     0.000
Ca               4.500e-03
   Ca+2                   4.500e-03   2.872e-03    -2.347    -2.542    -0.195
   CaOH+                  5.354e-09   4.766e-09    -8.271    -8.322    -0.051
Cl               9.000e-03
   Cl-                    9.000e-03   7.992e-03    -2.046    -2.097    -0.052
H(0)             1.485e-33
   H2                     7.424e-34   7.447e-34   -33.129   -33.128     0.001
O(0)             3.423e-28
   O2                     1.711e-28   1.717e-28   -27.767   -27.765     0.001

------------------------------Saturation indices-------------------------------

	Phase               SI log IAP  log KT

	H2(g)           -30.00  -33.13   -3.13  H2
	H2O(g)           -1.64    0.00    1.64  H2O
	O2(g)           -24.91  -27.77   -2.85  O2

-----------------------------------------
Beginning of batch-reaction calculations.
-----------------------------------------

Reaction step 1.

Using solution 0.	
Using exchange 1.	
Using kinetics 1.	Kinetics defined in simulation 1.

Kinetics 1.	Kinetics defined in simulation 1.

	Time step: 3600 seconds

	Rate name       Delta Moles Total Moles   Reactant        Coefficient

	Pyrolusite       -5.000e-01   5.000e-01   MnO2H2O                   1
	                                          NaF                       1

-----------------------------Exchange composition------------------------------

X                1.000e-01 mol	[0.1 (mol MnX2)/(mol kinetic reactant Pyrolusite)]

	                               Equiv-    Equivalent      Log 
	Species             Moles      alents      Fraction     Gamma

	NaX               9.131e-02   9.131e-02   9.131e-01    -0.146
	MnX2              4.343e-03   8.687e-03   8.687e-02    -0.668
	FeX2              3.656e-29   7.312e-29   7.312e-28    -0.668
	AlOHX2            2.039e-33   4.079e-33   4.079e-32    -0.442
	AlX3              2.608e-41   7.823e-41   7.823e-40    -1.134

-----------------------------Solution composition------------------------------

	Elements           Molality       Moles

	Al                1.000e-11   1.000e-11
	Cl                3.100e-02   3.100e-02
	F                 5.001e-01   5.000e-01
	Fe                1.550e-02   1.550e-02
	Mn                5.457e-01   5.457e-01
	Na                4.087e-01   4.087e-01

----------------------------Description of solution----------------------------

                                       pH  =  13.525      Charge balance
                                       pe  =   8.294      Adjusted to redox equilibrium
                        Activity of water  =   0.965
                           Ionic strength  =   8.888e-01
                       Mass of water (kg)  =   9.999e-01
                 Total alkalinity (eq/kg)  =   9.846e-01
                    Total carbon (mol/kg)  =   0.000e+00
                       Total CO2 (mol/kg)  =   0.000e+00
                      Temperature (deg C)  =  20.000
                  Electrical balance (eq)  =   5.919e-10
 Percent error, 100*(Cat-|An|)/(Cat+|An|)  =   0.00
                               Iterations  = 357
                                  Total H  = 1.120124e+02
                                  Total O  = 5.700622e+01

----------------------------Distribution of species----------------------------

                                                   Log       Log         Log 
   Species                 Molality    Activity  Molality  Activity     Gamma

   OH-                    3.717e-01   2.194e-01    -0.430    -0.659    -0.229
   H+                     3.989e-14   2.984e-14   -13.399   -13.525    -0.126
   H2O                    5.551e+01   9.645e-01     1.744    -0.016     0.000
Al               1.000e-11
   Al(OH)4-               1.000e-11   7.756e-12   -11.000   -11.110    -0.110
   Al(OH)3                1.103e-19   1.353e-19   -18.958   -18.869     0.089
   AlF6-3                 2.019e-24   2.047e-25   -23.695   -24.689    -0.994
   AlF5-2                 1.855e-24   6.709e-25   -23.732   -24.173    -0.442
   AlF4-                  1.959e-25   1.519e-25   -24.708   -24.818    -0.110
   Al(OH)2+               5.361e-26   4.157e-26   -25.271   -25.381    -0.110
   AlF3                   1.129e-27   1.385e-27   -26.947   -26.859     0.089
   AlF2+                  5.170e-31   4.009e-31   -30.286   -30.397    -0.110
   AlOH+2                 7.114e-34   2.573e-34   -33.148   -33.590    -0.442
   AlF+2                  8.236e-36   2.978e-36   -35.084   -35.526    -0.442
   Al+3                   0.000e+00   0.000e+00   -40.819   -41.953    -1.134
Cl               3.100e-02
   Cl-                    3.093e-02   1.883e-02    -1.510    -1.725    -0.216
   MnCl+                  7.550e-05   5.855e-05    -4.122    -4.232    -0.110
   MnCl2                  3.921e-07   4.812e-07    -6.407    -6.318     0.089
   MnCl3-                 3.218e-09   2.495e-09    -8.492    -8.603    -0.110
   FeCl+                  2.589e-31   2.008e-31   -30.587   -30.697    -0.110
   FeCl+2                 1.470e-34   5.317e-35   -33.833   -34.274    -0.442
   FeCl2+                 6.775e-36   5.254e-36   -35.169   -35.280    -0.110
   FeCl3                  8.061e-39   9.892e-39   -38.094   -38.005     0.089
F                5.001e-01
   F-                     4.672e-01   2.758e-01    -0.331    -0.559    -0.229
   NaF                    3.102e-02   3.807e-02    -1.508    -1.419     0.089
   MnF+                   1.878e-03   1.456e-03    -2.726    -2.837    -0.110
   HF2-                   1.478e-11   1.146e-11   -10.830   -10.941    -0.110
   HF                     9.202e-12   1.129e-11   -11.036   -10.947     0.089
   FeF3                   1.608e-22   1.973e-22   -21.794   -21.705     0.089
   AlF6-3                 2.019e-24   2.047e-25   -23.695   -24.689    -0.994
   AlF5-2                 1.855e-24   6.709e-25   -23.732   -24.173    -0.442
   FeF2+                  5.922e-25   4.593e-25   -24.228   -24.338    -0.110
   AlF4-                  1.959e-25   1.519e-25   -24.708   -24.818    -0.110
   AlF3                   1.129e-27   1.385e-27   -26.947   -26.859     0.089
   FeF+2                  1.229e-28   4.443e-29   -27.911   -28.352    -0.442
   FeF+                   2.747e-29   2.131e-29   -28.561   -28.672    -0.110
   AlF2+                  5.170e-31   4.009e-31   -30.286   -30.397    -0.110
   AlF+2                  8.236e-36   2.978e-36   -35.084   -35.526    -0.442
Fe(2)            6.969e-26
   FeOH+                  6.962e-26   5.399e-26   -25.157   -25.268    -0.110
   Fe+2                   3.594e-29   7.725e-30   -28.444   -29.112    -0.668
   FeF+                   2.747e-29   2.131e-29   -28.561   -28.672    -0.110
   FeCl+                  2.589e-31   2.008e-31   -30.587   -30.697    -0.110
Fe(3)            1.550e-02
   Fe(OH)4-               1.550e-02   1.202e-02    -1.810    -1.920    -0.110
   Fe(OH)3                4.077e-07   5.003e-07    -6.390    -6.301     0.089
   Fe(OH)2+               1.934e-13   1.500e-13   -12.714   -12.824    -0.110
   FeF3                   1.608e-22   1.973e-22   -21.794   -21.705     0.089
   FeOH+2                 4.699e-23   1.699e-23   -22.328   -22.770    -0.442
   FeF2+                  5.922e-25   4.593e-25   -24.228   -24.338    -0.110
   FeF+2                  1.229e-28   4.443e-29   -27.911   -28.352    -0.442
   Fe+3                   1.496e-33   1.099e-34   -32.825   -33.959    -1.134
   FeCl+2                 1.470e-34   5.317e-35   -33.833   -34.274    -0.442
   FeCl2+                 6.775e-36   5.254e-36   -35.169   -35.280    -0.110
   FeCl3                  8.061e-39   9.892e-39   -38.094   -38.005     0.089
   Fe2(OH)2+4             0.000e+00   0.000e+00   -42.251   -44.018    -1.767
   Fe3(OH)4+5             0.000e+00   0.000e+00   -51.558   -54.318    -2.761
H(0)             0.000e+00
   H2                     0.000e+00   0.000e+00   -46.855   -46.766     0.089
Mn(2)            5.457e-01
   MnOH+                  5.402e-01   4.189e-01    -0.267    -0.378    -0.110
   Mn+2                   3.552e-03   7.633e-04    -2.450    -3.117    -0.668
   MnF+                   1.878e-03   1.456e-03    -2.726    -2.837    -0.110
   MnCl+                  7.550e-05   5.855e-05    -4.122    -4.232    -0.110
   MnCl2                  3.921e-07   4.812e-07    -6.407    -6.318     0.089
   MnCl3-                 3.218e-09   2.495e-09    -8.492    -8.603    -0.110
Mn(3)            2.178e-20
   Mn+3                   2.178e-20   2.209e-21   -19.662   -20.656    -0.994
Na               4.087e-01
   Na+                    3.360e-01   2.398e-01    -0.474    -0.620    -0.146
   NaOH                   4.174e-02   5.122e-02    -1.379    -1.291     0.089
   NaF                    3.102e-02   3.807e-02    -1.508    -1.419     0.089
O(0)             4.923e-01
   O2                     2.462e-01   3.021e-01    -0.609    -0.520     0.089

------------------------------Saturation indices-------------------------------

	Phase               SI log IAP  log KT

	Al(OH)3(a)      -12.56   -1.42   11.13  Al(OH)3
	Fe(OH)3(a)        1.68    6.57    4.89  Fe(OH)3
	Gibbsite         -9.82   -1.42    8.40  Al(OH)3
	Goethite          7.40    6.58   -0.82  FeOOH
	H2(g)           -43.64  -46.77   -3.13  H2
	H2O(g)           -1.66   -0.02    1.64  H2O
	Halite           -3.92   -2.35    1.57  NaCl
	Hausmannite      53.09  115.37   62.29  Mn3O4
	Hematite         16.81   13.19   -3.62  Fe2O3
	Manganite        20.38   45.72   25.34  MnOOH
	O2(g)             2.33   -0.52   -2.85  O2
	Pyrochroite       8.70   23.90   15.20  Mn(OH)2
	Pyrolusite       25.35   67.54   42.19  MnO2

------------------
End of simulation.
------------------

------------------------------------
Reading input data for simulation 2.
------------------------------------

-----------
End of run.
-----------

