WARNING: Database file from DATABASE keyword is used; command line argument ignored.
   Input file: f_viscos
  Output file: f_viscos.out
Database file: ../database/phreeqc.dat

------------------
Reading data base.
------------------

	SOLUTION_MASTER_SPECIES
	SOLUTION_SPECIES
	PHASES
	EXCHANGE_MASTER_SPECIES
	EXCHANGE_SPECIES
	SURFACE_MASTER_SPECIES
	SURFACE_SPECIES
	MEAN_GAMMAS
	RATES
	END
------------------------------------
Reading input data for simulation 1.
------------------------------------

	DATABASE ../database/phreeqc.dat
	SELECTED_OUTPUT 101
	    file                 f_viscos_101.sel
	USER_PUNCH 101
	    headings Mu SC
	    start
	10 PUNCH STR_F$(MU, 20, 12)
	20 PUNCH STR_F$(SC, 20, 10)
	    end
	SOLUTION_SPREAD
	units mol/kgw
	number	Na	K	Amm	Cl	Br	S(6)	pH
	21	0	2	2	0		2	7 charge
	USER_PRINT
	10  dim x(100)
	20  x(1 ) = f_visc("Na+")
	30  x(2 ) = f_visc("NaSO4-")
	40  x(3 ) = f_visc("K+")
	50  x(4 ) = f_visc("KSO4-")
	60  x(5 ) = f_visc("AmmH+")
	70  x(6 ) = f_visc("AmmHSO4-")
	72  x(7 ) = f_visc("Amm")
	80  x(8 ) = f_visc("SO4-2")
	90  x(9 ) = f_visc("H+")
	100 x(10) = f_visc("OH-")
	110 x(11) = f_visc("Cl-")
	110 for i = 1 to 11 : s = s + x(i) : print x(i) : next i : print s
WARNING: Could not find element in database, Amm.
	Concentration is set to zero.
-------------------------------------------
Beginning of initial solution calculations.
-------------------------------------------

Initial solution 21.	

----------------------------------User print-----------------------------------

           0 
           0 
 -3.4272e-03 
  4.9257e-02 
           0 
           0 
           0 
  2.5429e-01 
  3.3612e-02 
           0 
           0 
  3.3374e-01 

-----------------------------Solution composition------------------------------

	Elements           Molality       Moles

	K                 2.000e+00   2.000e+00
	S(6)              2.000e+00   2.000e+00

----------------------------Description of solution----------------------------

                                       pH  =   0.325      Charge balance
                                       pe  =   4.000    
      Specific Conductance (µS/cm,  25°C)  = 279215
                          Density (g/cm³)  =   1.16506
                               Volume (L)  =   1.09208
                        Viscosity (mPa s)  =   1.19113
                        Activity of water  =   0.925
                 Ionic strength (mol/kgw)  =   2.782e+00
                       Mass of water (kg)  =   1.000e+00
                 Total alkalinity (eq/kg)  =  -2.000e+00
                         Temperature (°C)  =  25.00
                  Electrical balance (eq)  =   1.482e-10
 Percent error, 100*(Cat-|An|)/(Cat+|An|)  =   0.00
                               Iterations  =  11
                                  Total H  = 1.130124e+02
                                  Total O  = 6.350622e+01

----------------------------Distribution of species----------------------------

                                               Log       Log       Log    mole V
   Species          Molality    Activity  Molality  Activity     Gamma   cm³/mol

   H+              6.591e-01   4.737e-01    -0.181    -0.325    -0.143      0.00
   OH-             3.869e-14   1.977e-14   -13.412   -13.704    -0.292      0.47
   H2O             5.551e+01   9.254e-01     1.744    -0.034     0.000     18.07
H(0)          1.674e-12
   H2              8.371e-13   1.589e-12   -12.077   -11.799     0.278     28.61
K             2.000e+00
   K+              1.732e+00   9.743e-01     0.239    -0.011    -0.250     10.70
   KSO4-           2.681e-01   5.520e-01    -0.572    -0.258     0.314    -32.81
O(0)          0.000e+00
   O2              0.000e+00   0.000e+00   -69.128   -68.849     0.278     30.40
S(6)          2.000e+00
   HSO4-           1.341e+00   1.715e+00     0.127     0.234     0.107     41.58
   SO4-2           3.910e-01   3.723e-02    -0.408    -1.429    -1.021     60.44
   KSO4-           2.681e-01   5.520e-01    -0.572    -0.258     0.314    -32.81

------------------------------Saturation indices-------------------------------

  Phase               SI** log IAP   log K(298 K,   1 atm)

  Arcanite          0.43     -1.45   -1.88  K2SO4
  H2(g)            -8.70    -11.80   -3.10  H2
  H2O(g)           -1.54     -0.03    1.50  H2O
  O2(g)           -65.96    -68.85   -2.89  O2

**For a gas, SI = log10(fugacity). Fugacity = pressure * phi / 1 atm.
  For ideal gases, phi = 1.

------------------
End of simulation.
------------------

------------------------------------
Reading input data for simulation 2.
------------------------------------

