   Input file: fiona
  Output file: fiona.out
Database file: ../database/phreeqc.dat

------------------
Reading data base.
------------------

	SOLUTION_MASTER_SPECIES
	SOLUTION_SPECIES
	PHASES
	EXCHANGE_MASTER_SPECIES
	EXCHANGE_SPECIES
	SURFACE_MASTER_SPECIES
	SURFACE_SPECIES
	RATES
	END
------------------------------------
Reading input data for simulation 1.
------------------------------------

	DATABASE ../database/phreeqc.dat
	TITLE Doug's test problem using Np in Reference Backfill water, stepping Eh
	 SOLUTION 1  Reference Backfill water
	         units   mol/L
	         pH      12.5
	         density 1.023
	         temp    25.0
	         Ca              5.1e-2
	         Mg              5.7e-3
	         Na              3.7e-1
	         K               4.4e-3
	         Al        1.7e-6    
	         Sr   2.0e-3
	         Si              2.0e-3
	         Cl              4.2e-1
	         C   1.0e-3
	         S(6)            1.2e-2
	         Np           1.e-10
	 SOLUTION_MASTER_SPECIES
	         Np       Np+4       0.0     237.048   237.048
	         Np(4)    Np+4     0.0     237.048
	         Np(5)    NpO2+  0.0     237.048
	 SOLUTION_SPECIES
	         Np+4                = Np+4
	                 log_k          0.0
	                 delta_h       = 0
	         Np+4 + 4H2O  = Np(OH)4 + 4H+
	                 logK = -9.83
	                 delta_h = 0
	         Np+4 + 2H2O  =  NpO2+ + 4H+ + e-
	                 logK =   -10.21
	                 delta_h        0 kcal/mol
	         NpO2+  + H2O =  NpO2OH + H+
	                 logK = -11.3
	                 delta_h = 0 kcal/mol
	         NpO2+ + 2H2O  =  NpO2(OH)2- + 2H+
	                 logK = -23.60
	                 delta_h = 0 kcal/mol
	 PHASES
	         Neptunium(IV)hydroxide
	         Np(OH)4 + 4H+  =  Np+4 + 4H2O
	                 log_k          0.74
	                 delta_h        0 kcal/mol
	         Neptunium(IV)oxide
	         NpO2 + 4H+ = Np+4 + 2H2O
	                 log_k          -2.68
	                 delta_h        0 kcal/mol
	         Neptunium(IV)oxide(am)
	         NpO2 + 4H+ = Np+4 + 2H2O
	                 log_k          1.53
	                 delta_h        0 kcal/mol
	             Fix_pe
	             e- = e-
	             log_k  0
	 END
-----
TITLE
-----

 Doug's test problem using Np in Reference Backfill water, stepping Eh

-------------------------------------------
Beginning of initial solution calculations.
-------------------------------------------

Initial solution 1.	Reference Backfill water

-----------------------------Solution composition------------------------------

	Elements           Molality       Moles

	Al                1.707e-06   1.707e-06
	C                 1.004e-03   1.004e-03
	Ca                5.122e-02   5.122e-02
	Cl                4.218e-01   4.218e-01
	K                 4.419e-03   4.419e-03
	Mg                5.724e-03   5.724e-03
	Na                3.716e-01   3.716e-01
	Np                1.004e-10   1.004e-10
	S(6)              1.205e-02   1.205e-02
	Si                2.009e-03   2.009e-03
	Sr                2.009e-03   2.009e-03

----------------------------Description of solution----------------------------

                                       pH  =  12.500    
                                       pe  =   4.000    
       Specific Conductance (uS/cm, 25 oC) = 48340
                          Density (g/cm3)  =   1.01829
                        Activity of water  =   0.984
                           Ionic strength  =   5.337e-01
                       Mass of water (kg)  =   1.000e+00
                 Total alkalinity (eq/kg)  =   6.660e-02
                       Total CO2 (mol/kg)  =   1.004e-03
                      Temperature (deg C)  =  25.00
                  Electrical balance (eq)  =  -1.859e-02
 Percent error, 100*(Cat-|An|)/(Cat+|An|)  =  -1.93
                               Iterations  =   5
                                  Total H  = 1.110796e+02
                                  Total O  = 5.562735e+01

----------------------------Distribution of species----------------------------

                                               Log       Log       Log    mole V
   Species          Molality    Activity  Molality  Activity     Gamma   cm3/mol

   OH-             4.973e-02   3.120e-02    -1.303    -1.506    -0.203     -2.56
   H+              4.149e-13   3.162e-13   -12.382   -12.500    -0.118      0.00
   H2O             5.551e+01   9.844e-01     1.744    -0.007     0.000     18.07
Al            1.707e-06
   Al(OH)4-        1.707e-06   1.255e-06    -5.768    -5.901    -0.134     (0)  
   Al(OH)3         1.892e-13   2.139e-13   -12.723   -12.670     0.053     (0)  
   Al(OH)2+        6.344e-19   4.663e-19   -18.198   -18.331    -0.134     (0)  
   AlOH+2          6.545e-26   1.911e-26   -25.184   -25.719    -0.535    -25.05
   Al+3            7.117e-33   6.181e-34   -32.148   -33.209    -1.061    -38.35
   AlSO4+          3.725e-33   2.739e-33   -32.429   -32.562    -0.134     (0)  
   Al(SO4)2-       1.651e-34   1.213e-34   -33.782   -33.916    -0.134     (0)  
   AlHSO4+2        0.000e+00   0.000e+00   -45.580   -46.115    -0.535     (0)  
C(-4)         0.000e+00
   CH4             0.000e+00   0.000e+00  -120.395  -120.342     0.053     32.22
C(4)          1.004e-03
   CaCO3           5.769e-04   6.523e-04    -3.239    -3.186     0.053    -14.60
   NaCO3-          2.438e-04   1.792e-04    -3.613    -3.747    -0.134      0.51
   CO3-2           1.644e-04   3.687e-05    -3.784    -4.433    -0.649     -1.10
   SrCO3           9.444e-06   1.068e-05    -5.025    -4.971     0.053    -14.13
   MgCO3           9.310e-06   1.053e-05    -5.031    -4.978     0.053    -17.09
   HCO3-           3.612e-07   2.486e-07    -6.442    -6.604    -0.162     26.42
   NaHCO3          5.740e-08   6.490e-08    -7.241    -7.188     0.053     29.13
   CaHCO3+         4.854e-08   3.341e-08    -7.314    -7.476    -0.162     10.33
   SrHCO3+         2.507e-09   1.726e-09    -8.601    -8.763    -0.162     (0)  
   MgHCO3+         1.184e-09   8.704e-10    -8.927    -9.060    -0.134      6.14
   CO2             1.588e-13   1.796e-13   -12.799   -12.746     0.053     30.26
Ca            5.122e-02
   Ca+2            4.092e-02   1.053e-02    -1.388    -1.977    -0.589    -16.48
   CaOH+           7.402e-03   5.441e-03    -2.131    -2.264    -0.134     (0)  
   CaSO4           2.321e-03   2.624e-03    -2.634    -2.581     0.053      7.50
   CaCO3           5.769e-04   6.523e-04    -3.239    -3.186     0.053    -14.60
   CaHCO3+         4.854e-08   3.341e-08    -7.314    -7.476    -0.162     10.33
   CaHSO4+         7.420e-15   5.454e-15   -14.130   -14.263    -0.134     (0)  
Cl            4.218e-01
   Cl-             4.218e-01   2.695e-01    -0.375    -0.569    -0.194     18.70
H(0)          1.252e-36
   H2              6.261e-37   7.079e-37   -36.203   -36.150     0.053     28.61
K             4.419e-03
   K+              4.355e-03   2.783e-03    -2.361    -2.556    -0.194      9.65
   KSO4-           3.727e-05   2.740e-05    -4.429    -4.562    -0.134     (0)  
   KOH             2.656e-05   3.004e-05    -4.576    -4.522     0.053     (0)  
Mg            5.724e-03
   MgOH+           4.601e-03   3.382e-03    -2.337    -2.471    -0.134     (0)  
   Mg+2            1.027e-03   2.992e-04    -2.988    -3.524    -0.536    -20.53
   MgSO4           8.692e-05   9.828e-05    -4.061    -4.008     0.053      5.84
   MgCO3           9.310e-06   1.053e-05    -5.031    -4.978     0.053    -17.09
   MgHCO3+         1.184e-09   8.704e-10    -8.927    -9.060    -0.134      6.14
Na            3.716e-01
   Na+             3.688e-01   2.611e-01    -0.433    -0.583    -0.150     -0.65
   NaSO4-          2.494e-03   1.833e-03    -2.603    -2.737    -0.134     30.42
   NaCO3-          2.438e-04   1.792e-04    -3.613    -3.747    -0.134      0.51
   NaHCO3          5.740e-08   6.490e-08    -7.241    -7.188     0.053     29.13
   NaOH            7.203e-13   8.145e-13   -12.142   -12.089     0.053     (0)  
Np(4)         4.277e-16
   Np(OH)4         4.277e-16   4.836e-16   -15.369   -15.315     0.053     (0)  
   Np+4            0.000e+00   0.000e+00   -53.320   -55.458    -2.138     (0)  
Np(5)         1.004e-10
   NpO2(OH)2-      6.889e-11   5.064e-11   -10.162   -10.295    -0.134     (0)  
   NpO2OH          2.871e-11   3.246e-11   -10.542   -10.489     0.053     (0)  
   NpO2+           2.830e-12   2.080e-12   -11.548   -11.682    -0.134     (0)  
O(0)          1.426e-20
   O2              7.129e-21   8.061e-21   -20.147   -20.094     0.053     30.40
S(6)          1.205e-02
   SO4-2           7.003e-03   1.401e-03    -2.155    -2.854    -0.699     13.71
   NaSO4-          2.494e-03   1.833e-03    -2.603    -2.737    -0.134     30.42
   CaSO4           2.321e-03   2.624e-03    -2.634    -2.581     0.053      7.50
   SrSO4           1.096e-04   1.240e-04    -3.960    -3.907     0.053     24.24
   MgSO4           8.692e-05   9.828e-05    -4.061    -4.008     0.053      5.84
   KSO4-           3.727e-05   2.740e-05    -4.429    -4.562    -0.134     (0)  
   HSO4-           5.860e-14   4.308e-14   -13.232   -13.366    -0.134     35.83
   CaHSO4+         7.420e-15   5.454e-15   -14.130   -14.263    -0.134     (0)  
   AlSO4+          3.725e-33   2.739e-33   -32.429   -32.562    -0.134     (0)  
   Al(SO4)2-       1.651e-34   1.213e-34   -33.782   -33.916    -0.134     (0)  
   AlHSO4+2        0.000e+00   0.000e+00   -45.580   -46.115    -0.535     (0)  
Si            2.009e-03
   H3SiO4-         1.302e-03   9.570e-04    -2.885    -3.019    -0.134     28.63
   H2SiO4-2        7.049e-04   2.059e-04    -3.152    -3.686    -0.535     (0)  
   H4SiO4          1.815e-06   2.052e-06    -5.741    -5.688     0.053     52.08
Sr            2.009e-03
   Sr+2            1.782e-03   4.537e-04    -2.749    -3.343    -0.594    -17.30
   SrSO4           1.096e-04   1.240e-04    -3.960    -3.907     0.053     24.24
   SrOH+           1.070e-04   7.244e-05    -3.971    -4.140    -0.169     (0)  
   SrCO3           9.444e-06   1.068e-05    -5.025    -4.971     0.053    -14.13
   SrHCO3+         2.507e-09   1.726e-09    -8.601    -8.763    -0.162     (0)  

------------------------------Saturation indices-------------------------------

	Phase               SI   log IAP   log K(298 K,   1 atm)

	Al(OH)3(a)       -6.53      4.27   10.80  Al(OH)3
	Albite           -5.49    -23.49  -18.00  NaAlSi3O8
	Alunite         -31.53    -32.93   -1.40  KAl3(SO4)2(OH)6
	Anhydrite        -0.59     -4.83   -4.24  CaSO4
	Anorthite        -5.39    -25.10  -19.71  CaAl2Si2O8
	Aragonite         1.93     -6.41   -8.34  CaCO3
	Ca-Montmorillonite -14.84    -59.87  -45.03  Ca0.165Al2.33Si3.67O10(OH)2
	Calcite           2.07     -6.41   -8.48  CaCO3
	Celestite         0.46     -6.20   -6.66  SrSO4
	CH4(g)         -117.50   -120.34   -2.84  CH4
	Chalcedony       -2.12     -5.67   -3.55  SiO2
	Chlorite(14A)    30.48     98.86   68.38  Mg5Al2Si3O10(OH)8
	Chrysotile       20.84     53.05   32.20  Mg3Si2O5(OH)4
	CO2(g)          -11.29    -12.75   -1.46  CO2
	Dolomite          2.72    -14.37  -17.09  CaMg(CO3)2
	Fix_pe           -4.00     -4.00    0.00  e-
	Gibbsite         -3.84      4.27    8.11  Al(OH)3
	Gypsum           -0.26     -4.84   -4.58  CaSO4:2H2O
	H2(g)           -33.05    -36.15   -3.10  H2
	H2O(g)           -1.51     -0.01    1.50  H2O
	Halite           -2.73     -1.15    1.58  NaCl
	Illite          -10.55    -50.82  -40.27  K0.6Mg0.25Al2.3Si3.5O10(OH)2
	K-feldspar       -4.89    -25.47  -20.57  KAlSi3O8
	K-mica           -6.95      5.75   12.70  KAl3Si3O10(OH)2
	Kaolinite       -10.24     -2.80    7.43  Al2Si2O5(OH)4
	Neptunium(IV)hydroxide  -6.23     -5.49    0.74  Np(OH)4
	Neptunium(IV)oxide  -2.79     -5.47   -2.68  NpO2
	Neptunium(IV)oxide(am)  -7.00     -5.47    1.53  NpO2
	O2(g)           -17.20    -20.09   -2.89  O2
	Quartz           -1.69     -5.67   -3.98  SiO2
	Sepiolite        10.13     25.89   15.76  Mg2Si3O7.5OH:3H2O
	Sepiolite(d)      7.23     25.89   18.66  Mg2Si3O7.5OH:3H2O
	SiO2(a)          -2.96     -5.67   -2.71  SiO2
	Strontianite      1.49     -7.78   -9.27  SrCO3
	Talc             20.31     41.70   21.40  Mg3Si4O10(OH)2


------------------
End of simulation.
------------------

------------------------------------
Reading input data for simulation 2.
------------------------------------

	USER_GRAPH
	-headings pe Np  Np(OH)4 NpO2OH NpO2(OH)2- NpO2+    
	-axis_titles Eh Np(moldm-3)   #These are for the graph axes
	-start
	10 graph_x  -la("e-")*2.303*8.31451*298/9.6485E4
	20 graph_y  tot("Np"),MOL("Np(OH)4"), MOL("NpO2OH"), MOL("NpO2(OH)2-"), MOL("NpO2+")    
	-end
	END
------------------
End of simulation.
------------------

------------------------------------
Reading input data for simulation 3.
------------------------------------

	USE solution 1
	EQUILIBRIUM_PHASES 1
	Fix_pe 7  O2(g) 1
	END
-----------------------------------------
Beginning of batch-reaction calculations.
-----------------------------------------

Reaction step 1.

Using solution 1.	Reference Backfill water
Using pure phase assemblage 1.	

-------------------------------Phase assemblage--------------------------------

                                                      Moles in assemblage
Phase               SI  log IAP  log K(T, P)   Initial       Final       Delta

Fix_pe            7.00     7.00      0.00
	 O2                 is reactant       1.000e+00   1.000e+00   2.511e-11

-----------------------------Solution composition------------------------------

	Elements           Molality       Moles

	Al                1.707e-06   1.707e-06
	C                 1.004e-03   1.004e-03
	Ca                5.122e-02   5.122e-02
	Cl                4.218e-01   4.218e-01
	K                 4.419e-03   4.419e-03
	Mg                5.724e-03   5.724e-03
	Na                3.716e-01   3.716e-01
	Np                1.004e-10   1.004e-10
	S                 1.205e-02   1.205e-02
	Si                2.009e-03   2.009e-03
	Sr                2.009e-03   2.009e-03

----------------------------Description of solution----------------------------

                                       pH  =  12.500      Charge balance
                                       pe  =  -7.000      Adjusted to redox equilibrium
       Specific Conductance (uS/cm, 25 oC) = 48340
                          Density (g/cm3)  =   1.01829
                        Activity of water  =   0.984
                           Ionic strength  =   5.337e-01
                       Mass of water (kg)  =   1.000e+00
                 Total alkalinity (eq/kg)  =   6.660e-02
                       Total CO2 (mol/kg)  =   1.004e-03
                      Temperature (deg C)  =  25.00
                  Electrical balance (eq)  =  -1.859e-02
 Percent error, 100*(Cat-|An|)/(Cat+|An|)  =  -1.93
                               Iterations  =  14
                                  Total H  = 1.110796e+02
                                  Total O  = 5.562735e+01

----------------------------Distribution of species----------------------------

                                               Log       Log       Log    mole V
   Species          Molality    Activity  Molality  Activity     Gamma   cm3/mol

   OH-             4.973e-02   3.120e-02    -1.303    -1.506    -0.203     -2.56
   H+              4.149e-13   3.162e-13   -12.382   -12.500    -0.118      0.00
   H2O             5.551e+01   9.844e-01     1.744    -0.007     0.000     18.07
Al            1.707e-06
   Al(OH)4-        1.707e-06   1.255e-06    -5.768    -5.901    -0.134     (0)  
   Al(OH)3         1.892e-13   2.139e-13   -12.723   -12.670     0.053     (0)  
   Al(OH)2+        6.344e-19   4.663e-19   -18.198   -18.331    -0.134     (0)  
   AlOH+2          6.545e-26   1.911e-26   -25.184   -25.719    -0.535    -25.05
   Al+3            7.117e-33   6.181e-34   -32.148   -33.209    -1.061    -38.35
   AlSO4+          3.725e-33   2.739e-33   -32.429   -32.562    -0.134     (0)  
   Al(SO4)2-       1.651e-34   1.213e-34   -33.782   -33.916    -0.134     (0)  
   AlHSO4+2        0.000e+00   0.000e+00   -45.580   -46.115    -0.535     (0)  
C(-4)         4.025e-33
   CH4             4.025e-33   4.551e-33   -32.395   -32.342     0.053     32.22
C(4)          1.004e-03
   CaCO3           5.769e-04   6.523e-04    -3.239    -3.186     0.053    -14.60
   NaCO3-          2.438e-04   1.792e-04    -3.613    -3.747    -0.134      0.51
   CO3-2           1.644e-04   3.687e-05    -3.784    -4.433    -0.649     -1.10
   SrCO3           9.444e-06   1.068e-05    -5.025    -4.971     0.053    -14.13
   MgCO3           9.310e-06   1.053e-05    -5.031    -4.978     0.053    -17.09
   HCO3-           3.612e-07   2.486e-07    -6.442    -6.604    -0.162     26.42
   NaHCO3          5.740e-08   6.490e-08    -7.241    -7.188     0.053     29.13
   CaHCO3+         4.854e-08   3.341e-08    -7.314    -7.476    -0.162     10.33
   SrHCO3+         2.507e-09   1.726e-09    -8.601    -8.763    -0.162     (0)  
   MgHCO3+         1.184e-09   8.704e-10    -8.927    -9.060    -0.134      6.14
   CO2             1.588e-13   1.796e-13   -12.799   -12.746     0.053     30.26
Ca            5.122e-02
   Ca+2            4.092e-02   1.053e-02    -1.388    -1.977    -0.589    -16.48
   CaOH+           7.402e-03   5.441e-03    -2.131    -2.264    -0.134     (0)  
   CaSO4           2.321e-03   2.624e-03    -2.634    -2.581     0.053      7.50
   CaCO3           5.769e-04   6.523e-04    -3.239    -3.186     0.053    -14.60
   CaHCO3+         4.854e-08   3.341e-08    -7.314    -7.476    -0.162     10.33
   CaHSO4+         7.420e-15   5.454e-15   -14.130   -14.263    -0.134     (0)  
Cl            4.218e-01
   Cl-             4.218e-01   2.695e-01    -0.375    -0.569    -0.194     18.70
H(0)          1.252e-14
   H2              6.261e-15   7.079e-15   -14.203   -14.150     0.053     28.61
K             4.419e-03
   K+              4.355e-03   2.783e-03    -2.361    -2.556    -0.194      9.65
   KSO4-           3.727e-05   2.740e-05    -4.429    -4.562    -0.134     (0)  
   KOH             2.656e-05   3.004e-05    -4.576    -4.522     0.053     (0)  
Mg            5.724e-03
   MgOH+           4.601e-03   3.382e-03    -2.337    -2.471    -0.134     (0)  
   Mg+2            1.027e-03   2.992e-04    -2.988    -3.524    -0.536    -20.53
   MgSO4           8.692e-05   9.828e-05    -4.061    -4.008     0.053      5.84
   MgCO3           9.310e-06   1.053e-05    -5.031    -4.978     0.053    -17.09
   MgHCO3+         1.184e-09   8.704e-10    -8.927    -9.060    -0.134      6.14
Na            3.716e-01
   Na+             3.688e-01   2.611e-01    -0.433    -0.583    -0.150     -0.65
   NaSO4-          2.494e-03   1.833e-03    -2.603    -2.737    -0.134     30.42
   NaCO3-          2.438e-04   1.792e-04    -3.613    -3.747    -0.134      0.51
   NaHCO3          5.740e-08   6.490e-08    -7.241    -7.188     0.053     29.13
   NaOH            7.203e-13   8.145e-13   -12.142   -12.089     0.053     (0)  
Np(4)         1.004e-10
   Np(OH)4         1.004e-10   1.136e-10    -9.998    -9.945     0.053     (0)  
   Np+4            0.000e+00   0.000e+00   -47.949   -50.088    -2.138     (0)  
Np(5)         2.358e-16
   NpO2(OH)2-      1.618e-16   1.189e-16   -15.791   -15.925    -0.134     (0)  
   NpO2OH          6.740e-17   7.621e-17   -16.171   -16.118     0.053     (0)  
   NpO2+           6.645e-18   4.885e-18   -17.178   -17.311    -0.134     (0)  
O(0)          0.000e+00
   O2              0.000e+00   0.000e+00   -64.147   -64.094     0.053     30.40
S(-2)         7.189e-26
   S-2             3.830e-26   8.049e-27   -25.417   -26.094    -0.677     (0)  
   HS-             3.359e-26   2.107e-26   -25.474   -25.676    -0.203     21.26
   H2S             5.153e-32   5.826e-32   -31.288   -31.235     0.053     37.16
S(6)          1.205e-02
   SO4-2           7.003e-03   1.401e-03    -2.155    -2.854    -0.699     13.71
   NaSO4-          2.494e-03   1.833e-03    -2.603    -2.737    -0.134     30.42
   CaSO4           2.321e-03   2.624e-03    -2.634    -2.581     0.053      7.50
   SrSO4           1.096e-04   1.240e-04    -3.960    -3.907     0.053     24.24
   MgSO4           8.692e-05   9.828e-05    -4.061    -4.008     0.053      5.84
   KSO4-           3.727e-05   2.740e-05    -4.429    -4.562    -0.134     (0)  
   HSO4-           5.860e-14   4.308e-14   -13.232   -13.366    -0.134     35.83
   CaHSO4+         7.420e-15   5.454e-15   -14.130   -14.263    -0.134     (0)  
   AlSO4+          3.725e-33   2.739e-33   -32.429   -32.562    -0.134     (0)  
   Al(SO4)2-       1.651e-34   1.213e-34   -33.782   -33.916    -0.134     (0)  
   AlHSO4+2        0.000e+00   0.000e+00   -45.580   -46.115    -0.535     (0)  
Si            2.009e-03
   H3SiO4-         1.302e-03   9.570e-04    -2.885    -3.019    -0.134     28.63
   H2SiO4-2        7.049e-04   2.059e-04    -3.152    -3.686    -0.535     (0)  
   H4SiO4          1.815e-06   2.052e-06    -5.741    -5.688     0.053     52.08
Sr            2.009e-03
   Sr+2            1.782e-03   4.537e-04    -2.749    -3.343    -0.594    -17.30
   SrSO4           1.096e-04   1.240e-04    -3.960    -3.907     0.053     24.24
   SrOH+           1.070e-04   7.244e-05    -3.971    -4.140    -0.169     (0)  
   SrCO3           9.444e-06   1.068e-05    -5.025    -4.971     0.053    -14.13
   SrHCO3+         2.507e-09   1.726e-09    -8.601    -8.763    -0.162     (0)  

------------------------------Saturation indices-------------------------------

	Phase               SI   log IAP   log K(298 K,   1 atm)

	Al(OH)3(a)       -6.53      4.27   10.80  Al(OH)3
	Albite           -5.49    -23.49  -18.00  NaAlSi3O8
	Alunite         -31.53    -32.93   -1.40  KAl3(SO4)2(OH)6
	Anhydrite        -0.59     -4.83   -4.24  CaSO4
	Anorthite        -5.39    -25.10  -19.71  CaAl2Si2O8
	Aragonite         1.93     -6.41   -8.34  CaCO3
	Ca-Montmorillonite -14.84    -59.87  -45.03  Ca0.165Al2.33Si3.67O10(OH)2
	Calcite           2.07     -6.41   -8.48  CaCO3
	Celestite         0.46     -6.20   -6.66  SrSO4
	CH4(g)          -29.50    -32.34   -2.84  CH4
	Chalcedony       -2.12     -5.67   -3.55  SiO2
	Chlorite(14A)    30.48     98.86   68.38  Mg5Al2Si3O10(OH)8
	Chrysotile       20.84     53.05   32.20  Mg3Si2O5(OH)4
	CO2(g)          -11.29    -12.75   -1.46  CO2
	Dolomite          2.72    -14.37  -17.09  CaMg(CO3)2
	Fix_pe            7.00      7.00    0.00  e-
	Gibbsite         -3.84      4.27    8.11  Al(OH)3
	Gypsum           -0.26     -4.84   -4.58  CaSO4:2H2O
	H2(g)           -11.05    -14.15   -3.10  H2
	H2O(g)           -1.51     -0.01    1.50  H2O
	H2S(g)          -30.18    -38.18   -7.99  H2S
	Halite           -2.73     -1.15    1.58  NaCl
	Illite          -10.55    -50.82  -40.27  K0.6Mg0.25Al2.3Si3.5O10(OH)2
	K-feldspar       -4.89    -25.47  -20.57  KAlSi3O8
	K-mica           -6.95      5.75   12.70  KAl3Si3O10(OH)2
	Kaolinite       -10.24     -2.80    7.43  Al2Si2O5(OH)4
	Neptunium(IV)hydroxide  -0.85     -0.11    0.74  Np(OH)4
	Neptunium(IV)oxide   2.58     -0.10   -2.68  NpO2
	Neptunium(IV)oxide(am)  -1.63     -0.10    1.53  NpO2
	O2(g)           -61.20    -64.09   -2.89  O2
	Quartz           -1.69     -5.67   -3.98  SiO2
	Sepiolite        10.13     25.89   15.76  Mg2Si3O7.5OH:3H2O
	Sepiolite(d)      7.23     25.89   18.66  Mg2Si3O7.5OH:3H2O
	SiO2(a)          -2.96     -5.67   -2.71  SiO2
	Strontianite      1.49     -7.78   -9.27  SrCO3
	Sulfur          -25.12    -20.23    4.88  S
	Talc             20.31     41.70   21.40  Mg3Si4O10(OH)2


------------------
End of simulation.
------------------

------------------------------------
Reading input data for simulation 4.
------------------------------------

	USE solution 1
	EQUILIBRIUM_PHASES 1
	Fix_pe 6  O2(g)
	END
-----------------------------------------
Beginning of batch-reaction calculations.
-----------------------------------------

Reaction step 1.

Using solution 1.	Reference Backfill water
Using pure phase assemblage 1.	

-------------------------------Phase assemblage--------------------------------

                                                      Moles in assemblage
Phase               SI  log IAP  log K(T, P)   Initial       Final       Delta

Fix_pe            6.00     6.00      0.00
	 O2                 is reactant       1.000e+01   1.000e+01   2.510e-11

-----------------------------Solution composition------------------------------

	Elements           Molality       Moles

	Al                1.707e-06   1.707e-06
	C                 1.004e-03   1.004e-03
	Ca                5.122e-02   5.122e-02
	Cl                4.218e-01   4.218e-01
	K                 4.419e-03   4.419e-03
	Mg                5.724e-03   5.724e-03
	Na                3.716e-01   3.716e-01
	Np                1.004e-10   1.004e-10
	S                 1.205e-02   1.205e-02
	Si                2.009e-03   2.009e-03
	Sr                2.009e-03   2.009e-03

----------------------------Description of solution----------------------------

                                       pH  =  12.500      Charge balance
                                       pe  =  -6.000      Adjusted to redox equilibrium
       Specific Conductance (uS/cm, 25 oC) = 48340
                          Density (g/cm3)  =   1.01829
                        Activity of water  =   0.984
                           Ionic strength  =   5.337e-01
                       Mass of water (kg)  =   1.000e+00
                 Total alkalinity (eq/kg)  =   6.660e-02
                       Total CO2 (mol/kg)  =   1.004e-03
                      Temperature (deg C)  =  25.00
                  Electrical balance (eq)  =  -1.859e-02
 Percent error, 100*(Cat-|An|)/(Cat+|An|)  =  -1.93
                               Iterations  =  13
                                  Total H  = 1.110796e+02
                                  Total O  = 5.562735e+01

----------------------------Distribution of species----------------------------

                                               Log       Log       Log    mole V
   Species          Molality    Activity  Molality  Activity     Gamma   cm3/mol

   OH-             4.973e-02   3.120e-02    -1.303    -1.506    -0.203     -2.56
   H+              4.149e-13   3.162e-13   -12.382   -12.500    -0.118      0.00
   H2O             5.551e+01   9.844e-01     1.744    -0.007     0.000     18.07
Al            1.707e-06
   Al(OH)4-        1.707e-06   1.255e-06    -5.768    -5.901    -0.134     (0)  
   Al(OH)3         1.892e-13   2.139e-13   -12.723   -12.670     0.053     (0)  
   Al(OH)2+        6.344e-19   4.663e-19   -18.198   -18.331    -0.134     (0)  
   AlOH+2          6.545e-26   1.911e-26   -25.184   -25.719    -0.535    -25.05
   Al+3            7.117e-33   6.181e-34   -32.148   -33.209    -1.061    -38.35
   AlSO4+          3.725e-33   2.739e-33   -32.429   -32.562    -0.134     (0)  
   Al(SO4)2-       1.651e-34   1.213e-34   -33.782   -33.916    -0.134     (0)  
   AlHSO4+2        0.000e+00   0.000e+00   -45.580   -46.115    -0.535     (0)  
C(-4)         0.000e+00
   CH4             0.000e+00   0.000e+00   -40.395   -40.342     0.053     32.22
C(4)          1.004e-03
   CaCO3           5.769e-04   6.523e-04    -3.239    -3.186     0.053    -14.60
   NaCO3-          2.438e-04   1.792e-04    -3.613    -3.747    -0.134      0.51
   CO3-2           1.644e-04   3.687e-05    -3.784    -4.433    -0.649     -1.10
   SrCO3           9.444e-06   1.068e-05    -5.025    -4.971     0.053    -14.13
   MgCO3           9.310e-06   1.053e-05    -5.031    -4.978     0.053    -17.09
   HCO3-           3.612e-07   2.486e-07    -6.442    -6.604    -0.162     26.42
   NaHCO3          5.740e-08   6.490e-08    -7.241    -7.188     0.053     29.13
   CaHCO3+         4.854e-08   3.341e-08    -7.314    -7.476    -0.162     10.33
   SrHCO3+         2.507e-09   1.726e-09    -8.601    -8.763    -0.162     (0)  
   MgHCO3+         1.184e-09   8.704e-10    -8.927    -9.060    -0.134      6.14
   CO2             1.588e-13   1.796e-13   -12.799   -12.746     0.053     30.26
Ca            5.122e-02
   Ca+2            4.092e-02   1.053e-02    -1.388    -1.977    -0.589    -16.48
   CaOH+           7.402e-03   5.441e-03    -2.131    -2.264    -0.134     (0)  
   CaSO4           2.321e-03   2.624e-03    -2.634    -2.581     0.053      7.50
   CaCO3           5.769e-04   6.523e-04    -3.239    -3.186     0.053    -14.60
   CaHCO3+         4.854e-08   3.341e-08    -7.314    -7.476    -0.162     10.33
   CaHSO4+         7.420e-15   5.454e-15   -14.130   -14.263    -0.134     (0)  
Cl            4.218e-01
   Cl-             4.218e-01   2.695e-01    -0.375    -0.569    -0.194     18.70
H(0)          1.252e-16
   H2              6.261e-17   7.079e-17   -16.203   -16.150     0.053     28.61
K             4.419e-03
   K+              4.355e-03   2.783e-03    -2.361    -2.556    -0.194      9.65
   KSO4-           3.727e-05   2.740e-05    -4.429    -4.562    -0.134     (0)  
   KOH             2.656e-05   3.004e-05    -4.576    -4.522     0.053     (0)  
Mg            5.724e-03
   MgOH+           4.601e-03   3.382e-03    -2.337    -2.471    -0.134     (0)  
   Mg+2            1.027e-03   2.992e-04    -2.988    -3.524    -0.536    -20.53
   MgSO4           8.692e-05   9.828e-05    -4.061    -4.008     0.053      5.84
   MgCO3           9.310e-06   1.053e-05    -5.031    -4.978     0.053    -17.09
   MgHCO3+         1.184e-09   8.704e-10    -8.927    -9.060    -0.134      6.14
Na            3.716e-01
   Na+             3.688e-01   2.611e-01    -0.433    -0.583    -0.150     -0.65
   NaSO4-          2.494e-03   1.833e-03    -2.603    -2.737    -0.134     30.42
   NaCO3-          2.438e-04   1.792e-04    -3.613    -3.747    -0.134      0.51
   NaHCO3          5.740e-08   6.490e-08    -7.241    -7.188     0.053     29.13
   NaOH            7.203e-13   8.145e-13   -12.142   -12.089     0.053     (0)  
Np(4)         1.004e-10
   Np(OH)4         1.004e-10   1.136e-10    -9.998    -9.945     0.053     (0)  
   Np+4            0.000e+00   0.000e+00   -47.949   -50.088    -2.138     (0)  
Np(5)         2.358e-15
   NpO2(OH)2-      1.618e-15   1.189e-15   -14.791   -14.925    -0.134     (0)  
   NpO2OH          6.740e-16   7.621e-16   -15.171   -15.118     0.053     (0)  
   NpO2+           6.645e-17   4.885e-17   -16.178   -16.311    -0.134     (0)  
O(0)          0.000e+00
   O2              0.000e+00   0.000e+00   -60.147   -60.094     0.053     30.40
S(-2)         7.189e-34
   S-2             3.830e-34   8.049e-35   -33.417   -34.094    -0.677     (0)  
   HS-             3.359e-34   2.107e-34   -33.474   -33.676    -0.203     21.26
   H2S             5.153e-40   5.826e-40   -39.288   -39.235     0.053     37.16
S(6)          1.205e-02
   SO4-2           7.003e-03   1.401e-03    -2.155    -2.854    -0.699     13.71
   NaSO4-          2.494e-03   1.833e-03    -2.603    -2.737    -0.134     30.42
   CaSO4           2.321e-03   2.624e-03    -2.634    -2.581     0.053      7.50
   SrSO4           1.096e-04   1.240e-04    -3.960    -3.907     0.053     24.24
   MgSO4           8.692e-05   9.828e-05    -4.061    -4.008     0.053      5.84
   KSO4-           3.727e-05   2.740e-05    -4.429    -4.562    -0.134     (0)  
   HSO4-           5.860e-14   4.308e-14   -13.232   -13.366    -0.134     35.83
   CaHSO4+         7.420e-15   5.454e-15   -14.130   -14.263    -0.134     (0)  
   AlSO4+          3.725e-33   2.739e-33   -32.429   -32.562    -0.134     (0)  
   Al(SO4)2-       1.651e-34   1.213e-34   -33.782   -33.916    -0.134     (0)  
   AlHSO4+2        0.000e+00   0.000e+00   -45.580   -46.115    -0.535     (0)  
Si            2.009e-03
   H3SiO4-         1.302e-03   9.570e-04    -2.885    -3.019    -0.134     28.63
   H2SiO4-2        7.049e-04   2.059e-04    -3.152    -3.686    -0.535     (0)  
   H4SiO4          1.815e-06   2.052e-06    -5.741    -5.688     0.053     52.08
Sr            2.009e-03
   Sr+2            1.782e-03   4.537e-04    -2.749    -3.343    -0.594    -17.30
   SrSO4           1.096e-04   1.240e-04    -3.960    -3.907     0.053     24.24
   SrOH+           1.070e-04   7.244e-05    -3.971    -4.140    -0.169     (0)  
   SrCO3           9.444e-06   1.068e-05    -5.025    -4.971     0.053    -14.13
   SrHCO3+         2.507e-09   1.726e-09    -8.601    -8.763    -0.162     (0)  

------------------------------Saturation indices-------------------------------

	Phase               SI   log IAP   log K(298 K,   1 atm)

	Al(OH)3(a)       -6.53      4.27   10.80  Al(OH)3
	Albite           -5.49    -23.49  -18.00  NaAlSi3O8
	Alunite         -31.53    -32.93   -1.40  KAl3(SO4)2(OH)6
	Anhydrite        -0.59     -4.83   -4.24  CaSO4
	Anorthite        -5.39    -25.10  -19.71  CaAl2Si2O8
	Aragonite         1.93     -6.41   -8.34  CaCO3
	Ca-Montmorillonite -14.84    -59.87  -45.03  Ca0.165Al2.33Si3.67O10(OH)2
	Calcite           2.07     -6.41   -8.48  CaCO3
	Celestite         0.46     -6.20   -6.66  SrSO4
	CH4(g)          -37.50    -40.34   -2.84  CH4
	Chalcedony       -2.12     -5.67   -3.55  SiO2
	Chlorite(14A)    30.48     98.86   68.38  Mg5Al2Si3O10(OH)8
	Chrysotile       20.84     53.05   32.20  Mg3Si2O5(OH)4
	CO2(g)          -11.29    -12.75   -1.46  CO2
	Dolomite          2.72    -14.37  -17.09  CaMg(CO3)2
	Fix_pe            6.00      6.00    0.00  e-
	Gibbsite         -3.84      4.27    8.11  Al(OH)3
	Gypsum           -0.26     -4.84   -4.58  CaSO4:2H2O
	H2(g)           -13.05    -16.15   -3.10  H2
	H2O(g)           -1.51     -0.01    1.50  H2O
	H2S(g)          -38.18    -46.18   -7.99  H2S
	Halite           -2.73     -1.15    1.58  NaCl
	Illite          -10.55    -50.82  -40.27  K0.6Mg0.25Al2.3Si3.5O10(OH)2
	K-feldspar       -4.89    -25.47  -20.57  KAlSi3O8
	K-mica           -6.95      5.75   12.70  KAl3Si3O10(OH)2
	Kaolinite       -10.24     -2.80    7.43  Al2Si2O5(OH)4
	Neptunium(IV)hydroxide  -0.85     -0.11    0.74  Np(OH)4
	Neptunium(IV)oxide   2.58     -0.10   -2.68  NpO2
	Neptunium(IV)oxide(am)  -1.63     -0.10    1.53  NpO2
	O2(g)           -57.20    -60.09   -2.89  O2
	Quartz           -1.69     -5.67   -3.98  SiO2
	Sepiolite        10.13     25.89   15.76  Mg2Si3O7.5OH:3H2O
	Sepiolite(d)      7.23     25.89   18.66  Mg2Si3O7.5OH:3H2O
	SiO2(a)          -2.96     -5.67   -2.71  SiO2
	Strontianite      1.49     -7.78   -9.27  SrCO3
	Sulfur          -31.12    -26.23    4.88  S
	Talc             20.31     41.70   21.40  Mg3Si4O10(OH)2


------------------
End of simulation.
------------------

------------------------------------
Reading input data for simulation 5.
------------------------------------

	USE solution 1
	EQUILIBRIUM_PHASES 1
	Fix_pe 5  O2(g)
	END
-----------------------------------------
Beginning of batch-reaction calculations.
-----------------------------------------

Reaction step 1.

Using solution 1.	Reference Backfill water
Using pure phase assemblage 1.	

-------------------------------Phase assemblage--------------------------------

                                                      Moles in assemblage
Phase               SI  log IAP  log K(T, P)   Initial       Final       Delta

Fix_pe            5.00     5.00      0.00
	 O2                 is reactant       1.000e+01   1.000e+01   2.510e-11

-----------------------------Solution composition------------------------------

	Elements           Molality       Moles

	Al                1.707e-06   1.707e-06
	C                 1.004e-03   1.004e-03
	Ca                5.122e-02   5.122e-02
	Cl                4.218e-01   4.218e-01
	K                 4.419e-03   4.419e-03
	Mg                5.724e-03   5.724e-03
	Na                3.716e-01   3.716e-01
	Np                1.004e-10   1.004e-10
	S                 1.205e-02   1.205e-02
	Si                2.009e-03   2.009e-03
	Sr                2.009e-03   2.009e-03

----------------------------Description of solution----------------------------

                                       pH  =  12.500      Charge balance
                                       pe  =  -5.000      Adjusted to redox equilibrium
       Specific Conductance (uS/cm, 25 oC) = 48340
                          Density (g/cm3)  =   1.01829
                        Activity of water  =   0.984
                           Ionic strength  =   5.337e-01
                       Mass of water (kg)  =   1.000e+00
                 Total alkalinity (eq/kg)  =   6.660e-02
                       Total CO2 (mol/kg)  =   1.004e-03
                      Temperature (deg C)  =  25.00
                  Electrical balance (eq)  =  -1.859e-02
 Percent error, 100*(Cat-|An|)/(Cat+|An|)  =  -1.93
                               Iterations  =  12
                                  Total H  = 1.110796e+02
                                  Total O  = 5.562735e+01

----------------------------Distribution of species----------------------------

                                               Log       Log       Log    mole V
   Species          Molality    Activity  Molality  Activity     Gamma   cm3/mol

   OH-             4.973e-02   3.120e-02    -1.303    -1.506    -0.203     -2.56
   H+              4.149e-13   3.162e-13   -12.382   -12.500    -0.118      0.00
   H2O             5.551e+01   9.844e-01     1.744    -0.007     0.000     18.07
Al            1.707e-06
   Al(OH)4-        1.707e-06   1.255e-06    -5.768    -5.901    -0.134     (0)  
   Al(OH)3         1.892e-13   2.139e-13   -12.723   -12.670     0.053     (0)  
   Al(OH)2+        6.344e-19   4.663e-19   -18.198   -18.331    -0.134     (0)  
   AlOH+2          6.545e-26   1.911e-26   -25.184   -25.719    -0.535    -25.05
   Al+3            7.117e-33   6.181e-34   -32.148   -33.209    -1.061    -38.35
   AlSO4+          3.725e-33   2.739e-33   -32.429   -32.562    -0.134     (0)  
   Al(SO4)2-       1.651e-34   1.213e-34   -33.782   -33.916    -0.134     (0)  
   AlHSO4+2        0.000e+00   0.000e+00   -45.580   -46.115    -0.535     (0)  
C(-4)         0.000e+00
   CH4             0.000e+00   0.000e+00   -48.395   -48.342     0.053     32.22
C(4)          1.004e-03
   CaCO3           5.769e-04   6.523e-04    -3.239    -3.186     0.053    -14.60
   NaCO3-          2.438e-04   1.792e-04    -3.613    -3.747    -0.134      0.51
   CO3-2           1.644e-04   3.687e-05    -3.784    -4.433    -0.649     -1.10
   SrCO3           9.444e-06   1.068e-05    -5.025    -4.971     0.053    -14.13
   MgCO3           9.310e-06   1.053e-05    -5.031    -4.978     0.053    -17.09
   HCO3-           3.612e-07   2.486e-07    -6.442    -6.604    -0.162     26.42
   NaHCO3          5.740e-08   6.490e-08    -7.241    -7.188     0.053     29.13
   CaHCO3+         4.854e-08   3.341e-08    -7.314    -7.476    -0.162     10.33
   SrHCO3+         2.507e-09   1.726e-09    -8.601    -8.763    -0.162     (0)  
   MgHCO3+         1.184e-09   8.704e-10    -8.927    -9.060    -0.134      6.14
   CO2             1.588e-13   1.796e-13   -12.799   -12.746     0.053     30.26
Ca            5.122e-02
   Ca+2            4.092e-02   1.053e-02    -1.388    -1.977    -0.589    -16.48
   CaOH+           7.402e-03   5.441e-03    -2.131    -2.264    -0.134     (0)  
   CaSO4           2.321e-03   2.624e-03    -2.634    -2.581     0.053      7.50
   CaCO3           5.769e-04   6.523e-04    -3.239    -3.186     0.053    -14.60
   CaHCO3+         4.854e-08   3.341e-08    -7.314    -7.476    -0.162     10.33
   CaHSO4+         7.420e-15   5.454e-15   -14.130   -14.263    -0.134     (0)  
Cl            4.218e-01
   Cl-             4.218e-01   2.695e-01    -0.375    -0.569    -0.194     18.70
H(0)          1.252e-18
   H2              6.261e-19   7.079e-19   -18.203   -18.150     0.053     28.61
K             4.419e-03
   K+              4.355e-03   2.783e-03    -2.361    -2.556    -0.194      9.65
   KSO4-           3.727e-05   2.740e-05    -4.429    -4.562    -0.134     (0)  
   KOH             2.656e-05   3.004e-05    -4.576    -4.522     0.053     (0)  
Mg            5.724e-03
   MgOH+           4.601e-03   3.382e-03    -2.337    -2.471    -0.134     (0)  
   Mg+2            1.027e-03   2.992e-04    -2.988    -3.524    -0.536    -20.53
   MgSO4           8.692e-05   9.828e-05    -4.061    -4.008     0.053      5.84
   MgCO3           9.310e-06   1.053e-05    -5.031    -4.978     0.053    -17.09
   MgHCO3+         1.184e-09   8.704e-10    -8.927    -9.060    -0.134      6.14
Na            3.716e-01
   Na+             3.688e-01   2.611e-01    -0.433    -0.583    -0.150     -0.65
   NaSO4-          2.494e-03   1.833e-03    -2.603    -2.737    -0.134     30.42
   NaCO3-          2.438e-04   1.792e-04    -3.613    -3.747    -0.134      0.51
   NaHCO3          5.740e-08   6.490e-08    -7.241    -7.188     0.053     29.13
   NaOH            7.203e-13   8.145e-13   -12.142   -12.089     0.053     (0)  
Np(4)         1.004e-10
   Np(OH)4         1.004e-10   1.135e-10    -9.998    -9.945     0.053     (0)  
   Np+4            0.000e+00   0.000e+00   -47.949   -50.088    -2.138     (0)  
Np(5)         2.357e-14
   NpO2(OH)2-      1.617e-14   1.189e-14   -13.791   -13.925    -0.134     (0)  
   NpO2OH          6.739e-15   7.620e-15   -14.171   -14.118     0.053     (0)  
   NpO2+           6.643e-16   4.884e-16   -15.178   -15.311    -0.134     (0)  
O(0)          0.000e+00
   O2              0.000e+00   0.000e+00   -56.147   -56.094     0.053     30.40
S(-2)         0.000e+00
   S-2             0.000e+00   0.000e+00   -41.417   -42.094    -0.677     (0)  
   HS-             0.000e+00   0.000e+00   -41.474   -41.676    -0.203     21.26
   H2S             0.000e+00   0.000e+00   -47.288   -47.235     0.053     37.16
S(6)          1.205e-02
   SO4-2           7.003e-03   1.401e-03    -2.155    -2.854    -0.699     13.71
   NaSO4-          2.494e-03   1.833e-03    -2.603    -2.737    -0.134     30.42
   CaSO4           2.321e-03   2.624e-03    -2.634    -2.581     0.053      7.50
   SrSO4           1.096e-04   1.240e-04    -3.960    -3.907     0.053     24.24
   MgSO4           8.692e-05   9.828e-05    -4.061    -4.008     0.053      5.84
   KSO4-           3.727e-05   2.740e-05    -4.429    -4.562    -0.134     (0)  
   HSO4-           5.860e-14   4.308e-14   -13.232   -13.366    -0.134     35.83
   CaHSO4+         7.420e-15   5.454e-15   -14.130   -14.263    -0.134     (0)  
   AlSO4+          3.725e-33   2.739e-33   -32.429   -32.562    -0.134     (0)  
   Al(SO4)2-       1.651e-34   1.213e-34   -33.782   -33.916    -0.134     (0)  
   AlHSO4+2        0.000e+00   0.000e+00   -45.580   -46.115    -0.535     (0)  
Si            2.009e-03
   H3SiO4-         1.302e-03   9.570e-04    -2.885    -3.019    -0.134     28.63
   H2SiO4-2        7.049e-04   2.059e-04    -3.152    -3.686    -0.535     (0)  
   H4SiO4          1.815e-06   2.052e-06    -5.741    -5.688     0.053     52.08
Sr            2.009e-03
   Sr+2            1.782e-03   4.537e-04    -2.749    -3.343    -0.594    -17.30
   SrSO4           1.096e-04   1.240e-04    -3.960    -3.907     0.053     24.24
   SrOH+           1.070e-04   7.244e-05    -3.971    -4.140    -0.169     (0)  
   SrCO3           9.444e-06   1.068e-05    -5.025    -4.971     0.053    -14.13
   SrHCO3+         2.507e-09   1.726e-09    -8.601    -8.763    -0.162     (0)  

------------------------------Saturation indices-------------------------------

	Phase               SI   log IAP   log K(298 K,   1 atm)

	Al(OH)3(a)       -6.53      4.27   10.80  Al(OH)3
	Albite           -5.49    -23.49  -18.00  NaAlSi3O8
	Alunite         -31.53    -32.93   -1.40  KAl3(SO4)2(OH)6
	Anhydrite        -0.59     -4.83   -4.24  CaSO4
	Anorthite        -5.39    -25.10  -19.71  CaAl2Si2O8
	Aragonite         1.93     -6.41   -8.34  CaCO3
	Ca-Montmorillonite -14.84    -59.87  -45.03  Ca0.165Al2.33Si3.67O10(OH)2
	Calcite           2.07     -6.41   -8.48  CaCO3
	Celestite         0.46     -6.20   -6.66  SrSO4
	CH4(g)          -45.50    -48.34   -2.84  CH4
	Chalcedony       -2.12     -5.67   -3.55  SiO2
	Chlorite(14A)    30.48     98.86   68.38  Mg5Al2Si3O10(OH)8
	Chrysotile       20.84     53.05   32.20  Mg3Si2O5(OH)4
	CO2(g)          -11.29    -12.75   -1.46  CO2
	Dolomite          2.72    -14.37  -17.09  CaMg(CO3)2
	Fix_pe            5.00      5.00    0.00  e-
	Gibbsite         -3.84      4.27    8.11  Al(OH)3
	Gypsum           -0.26     -4.84   -4.58  CaSO4:2H2O
	H2(g)           -15.05    -18.15   -3.10  H2
	H2O(g)           -1.51     -0.01    1.50  H2O
	H2S(g)          -46.18    -54.18   -7.99  H2S
	Halite           -2.73     -1.15    1.58  NaCl
	Illite          -10.55    -50.82  -40.27  K0.6Mg0.25Al2.3Si3.5O10(OH)2
	K-feldspar       -4.89    -25.47  -20.57  KAlSi3O8
	K-mica           -6.95      5.75   12.70  KAl3Si3O10(OH)2
	Kaolinite       -10.24     -2.80    7.43  Al2Si2O5(OH)4
	Neptunium(IV)hydroxide  -0.85     -0.11    0.74  Np(OH)4
	Neptunium(IV)oxide   2.58     -0.10   -2.68  NpO2
	Neptunium(IV)oxide(am)  -1.63     -0.10    1.53  NpO2
	O2(g)           -53.20    -56.09   -2.89  O2
	Quartz           -1.69     -5.67   -3.98  SiO2
	Sepiolite        10.13     25.89   15.76  Mg2Si3O7.5OH:3H2O
	Sepiolite(d)      7.23     25.89   18.66  Mg2Si3O7.5OH:3H2O
	SiO2(a)          -2.96     -5.67   -2.71  SiO2
	Strontianite      1.49     -7.78   -9.27  SrCO3
	Sulfur          -37.12    -32.23    4.88  S
	Talc             20.31     41.70   21.40  Mg3Si4O10(OH)2


------------------
End of simulation.
------------------

------------------------------------
Reading input data for simulation 6.
------------------------------------

	USE solution 1
	EQUILIBRIUM_PHASES 1
	Fix_pe 4  O2(g)
	END
-----------------------------------------
Beginning of batch-reaction calculations.
-----------------------------------------

Reaction step 1.

Using solution 1.	Reference Backfill water
Using pure phase assemblage 1.	

-------------------------------Phase assemblage--------------------------------

                                                      Moles in assemblage
Phase               SI  log IAP  log K(T, P)   Initial       Final       Delta

Fix_pe            4.00     4.00      0.00
	 O2                 is reactant       1.000e+01   1.000e+01   2.504e-11

-----------------------------Solution composition------------------------------

	Elements           Molality       Moles

	Al                1.707e-06   1.707e-06
	C                 1.004e-03   1.004e-03
	Ca                5.122e-02   5.122e-02
	Cl                4.218e-01   4.218e-01
	K                 4.419e-03   4.419e-03
	Mg                5.724e-03   5.724e-03
	Na                3.716e-01   3.716e-01
	Np                1.004e-10   1.004e-10
	S                 1.205e-02   1.205e-02
	Si                2.009e-03   2.009e-03
	Sr                2.009e-03   2.009e-03

----------------------------Description of solution----------------------------

                                       pH  =  12.500      Charge balance
                                       pe  =  -4.000      Adjusted to redox equilibrium
       Specific Conductance (uS/cm, 25 oC) = 48340
                          Density (g/cm3)  =   1.01829
                        Activity of water  =   0.984
                           Ionic strength  =   5.337e-01
                       Mass of water (kg)  =   1.000e+00
                 Total alkalinity (eq/kg)  =   6.660e-02
                       Total CO2 (mol/kg)  =   1.004e-03
                      Temperature (deg C)  =  25.00
                  Electrical balance (eq)  =  -1.859e-02
 Percent error, 100*(Cat-|An|)/(Cat+|An|)  =  -1.93
                               Iterations  =  12
                                  Total H  = 1.110796e+02
                                  Total O  = 5.562735e+01

----------------------------Distribution of species----------------------------

                                               Log       Log       Log    mole V
   Species          Molality    Activity  Molality  Activity     Gamma   cm3/mol

   OH-             4.973e-02   3.120e-02    -1.303    -1.506    -0.203     -2.56
   H+              4.149e-13   3.162e-13   -12.382   -12.500    -0.118      0.00
   H2O             5.551e+01   9.844e-01     1.744    -0.007     0.000     18.07
Al            1.707e-06
   Al(OH)4-        1.707e-06   1.255e-06    -5.768    -5.901    -0.134     (0)  
   Al(OH)3         1.892e-13   2.139e-13   -12.723   -12.670     0.053     (0)  
   Al(OH)2+        6.344e-19   4.663e-19   -18.198   -18.331    -0.134     (0)  
   AlOH+2          6.545e-26   1.911e-26   -25.184   -25.719    -0.535    -25.05
   Al+3            7.117e-33   6.181e-34   -32.148   -33.209    -1.061    -38.35
   AlSO4+          3.725e-33   2.739e-33   -32.429   -32.562    -0.134     (0)  
   Al(SO4)2-       1.651e-34   1.213e-34   -33.782   -33.916    -0.134     (0)  
   AlHSO4+2        0.000e+00   0.000e+00   -45.580   -46.115    -0.535     (0)  
C(-4)         0.000e+00
   CH4             0.000e+00   0.000e+00   -56.395   -56.342     0.053     32.22
C(4)          1.004e-03
   CaCO3           5.769e-04   6.523e-04    -3.239    -3.186     0.053    -14.60
   NaCO3-          2.438e-04   1.792e-04    -3.613    -3.747    -0.134      0.51
   CO3-2           1.644e-04   3.687e-05    -3.784    -4.433    -0.649     -1.10
   SrCO3           9.444e-06   1.068e-05    -5.025    -4.971     0.053    -14.13
   MgCO3           9.310e-06   1.053e-05    -5.031    -4.978     0.053    -17.09
   HCO3-           3.612e-07   2.486e-07    -6.442    -6.604    -0.162     26.42
   NaHCO3          5.740e-08   6.490e-08    -7.241    -7.188     0.053     29.13
   CaHCO3+         4.854e-08   3.341e-08    -7.314    -7.476    -0.162     10.33
   SrHCO3+         2.507e-09   1.726e-09    -8.601    -8.763    -0.162     (0)  
   MgHCO3+         1.184e-09   8.704e-10    -8.927    -9.060    -0.134      6.14
   CO2             1.588e-13   1.796e-13   -12.799   -12.746     0.053     30.26
Ca            5.122e-02
   Ca+2            4.092e-02   1.053e-02    -1.388    -1.977    -0.589    -16.48
   CaOH+           7.402e-03   5.441e-03    -2.131    -2.264    -0.134     (0)  
   CaSO4           2.321e-03   2.624e-03    -2.634    -2.581     0.053      7.50
   CaCO3           5.769e-04   6.523e-04    -3.239    -3.186     0.053    -14.60
   CaHCO3+         4.854e-08   3.341e-08    -7.314    -7.476    -0.162     10.33
   CaHSO4+         7.420e-15   5.454e-15   -14.130   -14.263    -0.134     (0)  
Cl            4.218e-01
   Cl-             4.218e-01   2.695e-01    -0.375    -0.569    -0.194     18.70
H(0)          1.252e-20
   H2              6.261e-21   7.079e-21   -20.203   -20.150     0.053     28.61
K             4.419e-03
   K+              4.355e-03   2.783e-03    -2.361    -2.556    -0.194      9.65
   KSO4-           3.727e-05   2.740e-05    -4.429    -4.562    -0.134     (0)  
   KOH             2.656e-05   3.004e-05    -4.576    -4.522     0.053     (0)  
Mg            5.724e-03
   MgOH+           4.601e-03   3.382e-03    -2.337    -2.471    -0.134     (0)  
   Mg+2            1.027e-03   2.992e-04    -2.988    -3.524    -0.536    -20.53
   MgSO4           8.692e-05   9.828e-05    -4.061    -4.008     0.053      5.84
   MgCO3           9.310e-06   1.053e-05    -5.031    -4.978     0.053    -17.09
   MgHCO3+         1.184e-09   8.704e-10    -8.927    -9.060    -0.134      6.14
Na            3.716e-01
   Na+             3.688e-01   2.611e-01    -0.433    -0.583    -0.150     -0.65
   NaSO4-          2.494e-03   1.833e-03    -2.603    -2.737    -0.134     30.42
   NaCO3-          2.438e-04   1.792e-04    -3.613    -3.747    -0.134      0.51
   NaHCO3          5.740e-08   6.490e-08    -7.241    -7.188     0.053     29.13
   NaOH            7.203e-13   8.145e-13   -12.142   -12.089     0.053     (0)  
Np(4)         1.002e-10
   Np(OH)4         1.002e-10   1.133e-10    -9.999    -9.946     0.053     (0)  
   Np+4            0.000e+00   0.000e+00   -47.950   -50.089    -2.138     (0)  
Np(5)         2.353e-13
   NpO2(OH)2-      1.614e-13   1.186e-13   -12.792   -12.926    -0.134     (0)  
   NpO2OH          6.724e-14   7.604e-14   -13.172   -13.119     0.053     (0)  
   NpO2+           6.629e-15   4.873e-15   -14.179   -14.312    -0.134     (0)  
O(0)          0.000e+00
   O2              0.000e+00   0.000e+00   -52.147   -52.094     0.053     30.40
S(-2)         0.000e+00
   S-2             0.000e+00   0.000e+00   -49.417   -50.094    -0.677     (0)  
   HS-             0.000e+00   0.000e+00   -49.474   -49.676    -0.203     21.26
   H2S             0.000e+00   0.000e+00   -55.288   -55.235     0.053     37.16
S(6)          1.205e-02
   SO4-2           7.003e-03   1.401e-03    -2.155    -2.854    -0.699     13.71
   NaSO4-          2.494e-03   1.833e-03    -2.603    -2.737    -0.134     30.42
   CaSO4           2.321e-03   2.624e-03    -2.634    -2.581     0.053      7.50
   SrSO4           1.096e-04   1.240e-04    -3.960    -3.907     0.053     24.24
   MgSO4           8.692e-05   9.828e-05    -4.061    -4.008     0.053      5.84
   KSO4-           3.727e-05   2.740e-05    -4.429    -4.562    -0.134     (0)  
   HSO4-           5.860e-14   4.308e-14   -13.232   -13.366    -0.134     35.83
   CaHSO4+         7.420e-15   5.454e-15   -14.130   -14.263    -0.134     (0)  
   AlSO4+          3.725e-33   2.739e-33   -32.429   -32.562    -0.134     (0)  
   Al(SO4)2-       1.651e-34   1.213e-34   -33.782   -33.916    -0.134     (0)  
   AlHSO4+2        0.000e+00   0.000e+00   -45.580   -46.115    -0.535     (0)  
Si            2.009e-03
   H3SiO4-         1.302e-03   9.570e-04    -2.885    -3.019    -0.134     28.63
   H2SiO4-2        7.049e-04   2.059e-04    -3.152    -3.686    -0.535     (0)  
   H4SiO4          1.815e-06   2.052e-06    -5.741    -5.688     0.053     52.08
Sr            2.009e-03
   Sr+2            1.782e-03   4.537e-04    -2.749    -3.343    -0.594    -17.30
   SrSO4           1.096e-04   1.240e-04    -3.960    -3.907     0.053     24.24
   SrOH+           1.070e-04   7.244e-05    -3.971    -4.140    -0.169     (0)  
   SrCO3           9.444e-06   1.068e-05    -5.025    -4.971     0.053    -14.13
   SrHCO3+         2.507e-09   1.726e-09    -8.601    -8.763    -0.162     (0)  

------------------------------Saturation indices-------------------------------

	Phase               SI   log IAP   log K(298 K,   1 atm)

	Al(OH)3(a)       -6.53      4.27   10.80  Al(OH)3
	Albite           -5.49    -23.49  -18.00  NaAlSi3O8
	Alunite         -31.53    -32.93   -1.40  KAl3(SO4)2(OH)6
	Anhydrite        -0.59     -4.83   -4.24  CaSO4
	Anorthite        -5.39    -25.10  -19.71  CaAl2Si2O8
	Aragonite         1.93     -6.41   -8.34  CaCO3
	Ca-Montmorillonite -14.84    -59.87  -45.03  Ca0.165Al2.33Si3.67O10(OH)2
	Calcite           2.07     -6.41   -8.48  CaCO3
	Celestite         0.46     -6.20   -6.66  SrSO4
	CH4(g)          -53.50    -56.34   -2.84  CH4
	Chalcedony       -2.12     -5.67   -3.55  SiO2
	Chlorite(14A)    30.48     98.86   68.38  Mg5Al2Si3O10(OH)8
	Chrysotile       20.84     53.05   32.20  Mg3Si2O5(OH)4
	CO2(g)          -11.29    -12.75   -1.46  CO2
	Dolomite          2.72    -14.37  -17.09  CaMg(CO3)2
	Fix_pe            4.00      4.00    0.00  e-
	Gibbsite         -3.84      4.27    8.11  Al(OH)3
	Gypsum           -0.26     -4.84   -4.58  CaSO4:2H2O
	H2(g)           -17.05    -20.15   -3.10  H2
	H2O(g)           -1.51     -0.01    1.50  H2O
	H2S(g)          -54.18    -62.18   -7.99  H2S
	Halite           -2.73     -1.15    1.58  NaCl
	Illite          -10.55    -50.82  -40.27  K0.6Mg0.25Al2.3Si3.5O10(OH)2
	K-feldspar       -4.89    -25.47  -20.57  KAlSi3O8
	K-mica           -6.95      5.75   12.70  KAl3Si3O10(OH)2
	Kaolinite       -10.24     -2.80    7.43  Al2Si2O5(OH)4
	Neptunium(IV)hydroxide  -0.86     -0.12    0.74  Np(OH)4
	Neptunium(IV)oxide   2.58     -0.10   -2.68  NpO2
	Neptunium(IV)oxide(am)  -1.63     -0.10    1.53  NpO2
	O2(g)           -49.20    -52.09   -2.89  O2
	Quartz           -1.69     -5.67   -3.98  SiO2
	Sepiolite        10.13     25.89   15.76  Mg2Si3O7.5OH:3H2O
	Sepiolite(d)      7.23     25.89   18.66  Mg2Si3O7.5OH:3H2O
	SiO2(a)          -2.96     -5.67   -2.71  SiO2
	Strontianite      1.49     -7.78   -9.27  SrCO3
	Sulfur          -43.12    -38.23    4.88  S
	Talc             20.31     41.70   21.40  Mg3Si4O10(OH)2


------------------
End of simulation.
------------------

------------------------------------
Reading input data for simulation 7.
------------------------------------

	USE solution 1
	EQUILIBRIUM_PHASES 1
	Fix_pe 3  O2(g)
	END
-----------------------------------------
Beginning of batch-reaction calculations.
-----------------------------------------

Reaction step 1.

Using solution 1.	Reference Backfill water
Using pure phase assemblage 1.	

-------------------------------Phase assemblage--------------------------------

                                                      Moles in assemblage
Phase               SI  log IAP  log K(T, P)   Initial       Final       Delta

Fix_pe            3.00     3.00      0.00
	 O2                 is reactant       1.000e+01   1.000e+01   2.453e-11

-----------------------------Solution composition------------------------------

	Elements           Molality       Moles

	Al                1.707e-06   1.707e-06
	C                 1.004e-03   1.004e-03
	Ca                5.122e-02   5.122e-02
	Cl                4.218e-01   4.218e-01
	K                 4.419e-03   4.419e-03
	Mg                5.724e-03   5.724e-03
	Na                3.716e-01   3.716e-01
	Np                1.004e-10   1.004e-10
	S                 1.205e-02   1.205e-02
	Si                2.009e-03   2.009e-03
	Sr                2.009e-03   2.009e-03

----------------------------Description of solution----------------------------

                                       pH  =  12.500      Charge balance
                                       pe  =  -3.000      Adjusted to redox equilibrium
       Specific Conductance (uS/cm, 25 oC) = 48340
                          Density (g/cm3)  =   1.01829
                        Activity of water  =   0.984
                           Ionic strength  =   5.337e-01
                       Mass of water (kg)  =   1.000e+00
                 Total alkalinity (eq/kg)  =   6.660e-02
                       Total CO2 (mol/kg)  =   1.004e-03
                      Temperature (deg C)  =  25.00
                  Electrical balance (eq)  =  -1.859e-02
 Percent error, 100*(Cat-|An|)/(Cat+|An|)  =  -1.93
                               Iterations  =  11
                                  Total H  = 1.110796e+02
                                  Total O  = 5.562735e+01

----------------------------Distribution of species----------------------------

                                               Log       Log       Log    mole V
   Species          Molality    Activity  Molality  Activity     Gamma   cm3/mol

   OH-             4.973e-02   3.120e-02    -1.303    -1.506    -0.203     -2.56
   H+              4.149e-13   3.162e-13   -12.382   -12.500    -0.118      0.00
   H2O             5.551e+01   9.844e-01     1.744    -0.007     0.000     18.07
Al            1.707e-06
   Al(OH)4-        1.707e-06   1.255e-06    -5.768    -5.901    -0.134     (0)  
   Al(OH)3         1.892e-13   2.139e-13   -12.723   -12.670     0.053     (0)  
   Al(OH)2+        6.344e-19   4.663e-19   -18.198   -18.331    -0.134     (0)  
   AlOH+2          6.545e-26   1.911e-26   -25.184   -25.719    -0.535    -25.05
   Al+3            7.117e-33   6.181e-34   -32.148   -33.209    -1.061    -38.35
   AlSO4+          3.725e-33   2.739e-33   -32.429   -32.562    -0.134     (0)  
   Al(SO4)2-       1.651e-34   1.213e-34   -33.782   -33.916    -0.134     (0)  
   AlHSO4+2        0.000e+00   0.000e+00   -45.580   -46.115    -0.535     (0)  
C(-4)         0.000e+00
   CH4             0.000e+00   0.000e+00   -64.395   -64.342     0.053     32.22
C(4)          1.004e-03
   CaCO3           5.769e-04   6.523e-04    -3.239    -3.186     0.053    -14.60
   NaCO3-          2.438e-04   1.792e-04    -3.613    -3.747    -0.134      0.51
   CO3-2           1.644e-04   3.687e-05    -3.784    -4.433    -0.649     -1.10
   SrCO3           9.444e-06   1.068e-05    -5.025    -4.971     0.053    -14.13
   MgCO3           9.310e-06   1.053e-05    -5.031    -4.978     0.053    -17.09
   HCO3-           3.612e-07   2.486e-07    -6.442    -6.604    -0.162     26.42
   NaHCO3          5.740e-08   6.490e-08    -7.241    -7.188     0.053     29.13
   CaHCO3+         4.854e-08   3.341e-08    -7.314    -7.476    -0.162     10.33
   SrHCO3+         2.507e-09   1.726e-09    -8.601    -8.763    -0.162     (0)  
   MgHCO3+         1.184e-09   8.704e-10    -8.927    -9.060    -0.134      6.14
   CO2             1.588e-13   1.796e-13   -12.799   -12.746     0.053     30.26
Ca            5.122e-02
   Ca+2            4.092e-02   1.053e-02    -1.388    -1.977    -0.589    -16.48
   CaOH+           7.402e-03   5.441e-03    -2.131    -2.264    -0.134     (0)  
   CaSO4           2.321e-03   2.624e-03    -2.634    -2.581     0.053      7.50
   CaCO3           5.769e-04   6.523e-04    -3.239    -3.186     0.053    -14.60
   CaHCO3+         4.854e-08   3.341e-08    -7.314    -7.476    -0.162     10.33
   CaHSO4+         7.420e-15   5.454e-15   -14.130   -14.263    -0.134     (0)  
Cl            4.218e-01
   Cl-             4.218e-01   2.695e-01    -0.375    -0.569    -0.194     18.70
H(0)          1.252e-22
   H2              6.261e-23   7.079e-23   -22.203   -22.150     0.053     28.61
K             4.419e-03
   K+              4.355e-03   2.783e-03    -2.361    -2.556    -0.194      9.65
   KSO4-           3.727e-05   2.740e-05    -4.429    -4.562    -0.134     (0)  
   KOH             2.656e-05   3.004e-05    -4.576    -4.522     0.053     (0)  
Mg            5.724e-03
   MgOH+           4.601e-03   3.382e-03    -2.337    -2.471    -0.134     (0)  
   Mg+2            1.027e-03   2.992e-04    -2.988    -3.524    -0.536    -20.53
   MgSO4           8.692e-05   9.828e-05    -4.061    -4.008     0.053      5.84
   MgCO3           9.310e-06   1.053e-05    -5.031    -4.978     0.053    -17.09
   MgHCO3+         1.184e-09   8.704e-10    -8.927    -9.060    -0.134      6.14
Na            3.716e-01
   Na+             3.688e-01   2.611e-01    -0.433    -0.583    -0.150     -0.65
   NaSO4-          2.494e-03   1.833e-03    -2.603    -2.737    -0.134     30.42
   NaCO3-          2.438e-04   1.792e-04    -3.613    -3.747    -0.134      0.51
   NaHCO3          5.740e-08   6.490e-08    -7.241    -7.188     0.053     29.13
   NaOH            7.203e-13   8.145e-13   -12.142   -12.089     0.053     (0)  
Np(4)         9.812e-11
   Np(OH)4         9.812e-11   1.110e-10   -10.008    -9.955     0.053     (0)  
   Np+4            0.000e+00   0.000e+00   -47.959   -50.098    -2.138     (0)  
Np(5)         2.304e-12
   NpO2(OH)2-      1.580e-12   1.162e-12   -11.801   -11.935    -0.134     (0)  
   NpO2OH          6.585e-13   7.447e-13   -12.181   -12.128     0.053     (0)  
   NpO2+           6.493e-14   4.773e-14   -13.188   -13.321    -0.134     (0)  
O(0)          0.000e+00
   O2              0.000e+00   0.000e+00   -48.147   -48.094     0.053     30.40
S(-2)         0.000e+00
   S-2             0.000e+00   0.000e+00   -57.417   -58.094    -0.677     (0)  
   HS-             0.000e+00   0.000e+00   -57.474   -57.676    -0.203     21.26
   H2S             0.000e+00   0.000e+00   -63.288   -63.235     0.053     37.16
S(6)          1.205e-02
   SO4-2           7.003e-03   1.401e-03    -2.155    -2.854    -0.699     13.71
   NaSO4-          2.494e-03   1.833e-03    -2.603    -2.737    -0.134     30.42
   CaSO4           2.321e-03   2.624e-03    -2.634    -2.581     0.053      7.50
   SrSO4           1.096e-04   1.240e-04    -3.960    -3.907     0.053     24.24
   MgSO4           8.692e-05   9.828e-05    -4.061    -4.008     0.053      5.84
   KSO4-           3.727e-05   2.740e-05    -4.429    -4.562    -0.134     (0)  
   HSO4-           5.860e-14   4.308e-14   -13.232   -13.366    -0.134     35.83
   CaHSO4+         7.420e-15   5.454e-15   -14.130   -14.263    -0.134     (0)  
   AlSO4+          3.725e-33   2.739e-33   -32.429   -32.562    -0.134     (0)  
   Al(SO4)2-       1.651e-34   1.213e-34   -33.782   -33.916    -0.134     (0)  
   AlHSO4+2        0.000e+00   0.000e+00   -45.580   -46.115    -0.535     (0)  
Si            2.009e-03
   H3SiO4-         1.302e-03   9.570e-04    -2.885    -3.019    -0.134     28.63
   H2SiO4-2        7.049e-04   2.059e-04    -3.152    -3.686    -0.535     (0)  
   H4SiO4          1.815e-06   2.052e-06    -5.741    -5.688     0.053     52.08
Sr            2.009e-03
   Sr+2            1.782e-03   4.537e-04    -2.749    -3.343    -0.594    -17.30
   SrSO4           1.096e-04   1.240e-04    -3.960    -3.907     0.053     24.24
   SrOH+           1.070e-04   7.244e-05    -3.971    -4.140    -0.169     (0)  
   SrCO3           9.444e-06   1.068e-05    -5.025    -4.971     0.053    -14.13
   SrHCO3+         2.507e-09   1.726e-09    -8.601    -8.763    -0.162     (0)  

------------------------------Saturation indices-------------------------------

	Phase               SI   log IAP   log K(298 K,   1 atm)

	Al(OH)3(a)       -6.53      4.27   10.80  Al(OH)3
	Albite           -5.49    -23.49  -18.00  NaAlSi3O8
	Alunite         -31.53    -32.93   -1.40  KAl3(SO4)2(OH)6
	Anhydrite        -0.59     -4.83   -4.24  CaSO4
	Anorthite        -5.39    -25.10  -19.71  CaAl2Si2O8
	Aragonite         1.93     -6.41   -8.34  CaCO3
	Ca-Montmorillonite -14.84    -59.87  -45.03  Ca0.165Al2.33Si3.67O10(OH)2
	Calcite           2.07     -6.41   -8.48  CaCO3
	Celestite         0.46     -6.20   -6.66  SrSO4
	CH4(g)          -61.50    -64.34   -2.84  CH4
	Chalcedony       -2.12     -5.67   -3.55  SiO2
	Chlorite(14A)    30.48     98.86   68.38  Mg5Al2Si3O10(OH)8
	Chrysotile       20.84     53.05   32.20  Mg3Si2O5(OH)4
	CO2(g)          -11.29    -12.75   -1.46  CO2
	Dolomite          2.72    -14.37  -17.09  CaMg(CO3)2
	Fix_pe            3.00      3.00    0.00  e-
	Gibbsite         -3.84      4.27    8.11  Al(OH)3
	Gypsum           -0.26     -4.84   -4.58  CaSO4:2H2O
	H2(g)           -19.05    -22.15   -3.10  H2
	H2O(g)           -1.51     -0.01    1.50  H2O
	H2S(g)          -62.18    -70.18   -7.99  H2S
	Halite           -2.73     -1.15    1.58  NaCl
	Illite          -10.55    -50.82  -40.27  K0.6Mg0.25Al2.3Si3.5O10(OH)2
	K-feldspar       -4.89    -25.47  -20.57  KAlSi3O8
	K-mica           -6.95      5.75   12.70  KAl3Si3O10(OH)2
	Kaolinite       -10.24     -2.80    7.43  Al2Si2O5(OH)4
	Neptunium(IV)hydroxide  -0.86     -0.12    0.74  Np(OH)4
	Neptunium(IV)oxide   2.57     -0.11   -2.68  NpO2
	Neptunium(IV)oxide(am)  -1.64     -0.11    1.53  NpO2
	O2(g)           -45.20    -48.09   -2.89  O2
	Quartz           -1.69     -5.67   -3.98  SiO2
	Sepiolite        10.13     25.89   15.76  Mg2Si3O7.5OH:3H2O
	Sepiolite(d)      7.23     25.89   18.66  Mg2Si3O7.5OH:3H2O
	SiO2(a)          -2.96     -5.67   -2.71  SiO2
	Strontianite      1.49     -7.78   -9.27  SrCO3
	Sulfur          -49.12    -44.23    4.88  S
	Talc             20.31     41.70   21.40  Mg3Si4O10(OH)2


------------------
End of simulation.
------------------

------------------------------------
Reading input data for simulation 8.
------------------------------------

	USE solution 1
	EQUILIBRIUM_PHASES 1
	Fix_pe 2  O2(g)
	END
-----------------------------------------
Beginning of batch-reaction calculations.
-----------------------------------------

Reaction step 1.

Using solution 1.	Reference Backfill water
Using pure phase assemblage 1.	

-------------------------------Phase assemblage--------------------------------

                                                      Moles in assemblage
Phase               SI  log IAP  log K(T, P)   Initial       Final       Delta

Fix_pe            2.00     2.00      0.00
	 O2                 is reactant       1.000e+01   1.000e+01   2.033e-11

-----------------------------Solution composition------------------------------

	Elements           Molality       Moles

	Al                1.707e-06   1.707e-06
	C                 1.004e-03   1.004e-03
	Ca                5.122e-02   5.122e-02
	Cl                4.218e-01   4.218e-01
	K                 4.419e-03   4.419e-03
	Mg                5.724e-03   5.724e-03
	Na                3.716e-01   3.716e-01
	Np                1.004e-10   1.004e-10
	S                 1.205e-02   1.205e-02
	Si                2.009e-03   2.009e-03
	Sr                2.009e-03   2.009e-03

----------------------------Description of solution----------------------------

                                       pH  =  12.500      Charge balance
                                       pe  =  -2.000      Adjusted to redox equilibrium
       Specific Conductance (uS/cm, 25 oC) = 48340
                          Density (g/cm3)  =   1.01829
                        Activity of water  =   0.984
                           Ionic strength  =   5.337e-01
                       Mass of water (kg)  =   1.000e+00
                 Total alkalinity (eq/kg)  =   6.660e-02
                       Total CO2 (mol/kg)  =   1.004e-03
                      Temperature (deg C)  =  25.00
                  Electrical balance (eq)  =  -1.859e-02
 Percent error, 100*(Cat-|An|)/(Cat+|An|)  =  -1.93
                               Iterations  =  10
                                  Total H  = 1.110796e+02
                                  Total O  = 5.562735e+01

----------------------------Distribution of species----------------------------

                                               Log       Log       Log    mole V
   Species          Molality    Activity  Molality  Activity     Gamma   cm3/mol

   OH-             4.973e-02   3.120e-02    -1.303    -1.506    -0.203     -2.56
   H+              4.149e-13   3.162e-13   -12.382   -12.500    -0.118      0.00
   H2O             5.551e+01   9.844e-01     1.744    -0.007     0.000     18.07
Al            1.707e-06
   Al(OH)4-        1.707e-06   1.255e-06    -5.768    -5.901    -0.134     (0)  
   Al(OH)3         1.892e-13   2.139e-13   -12.723   -12.670     0.053     (0)  
   Al(OH)2+        6.344e-19   4.663e-19   -18.198   -18.331    -0.134     (0)  
   AlOH+2          6.545e-26   1.911e-26   -25.184   -25.719    -0.535    -25.05
   Al+3            7.117e-33   6.181e-34   -32.148   -33.209    -1.061    -38.35
   AlSO4+          3.725e-33   2.739e-33   -32.429   -32.562    -0.134     (0)  
   Al(SO4)2-       1.651e-34   1.213e-34   -33.782   -33.916    -0.134     (0)  
   AlHSO4+2        0.000e+00   0.000e+00   -45.580   -46.115    -0.535     (0)  
C(-4)         0.000e+00
   CH4             0.000e+00   0.000e+00   -72.395   -72.342     0.053     32.22
C(4)          1.004e-03
   CaCO3           5.769e-04   6.523e-04    -3.239    -3.186     0.053    -14.60
   NaCO3-          2.438e-04   1.792e-04    -3.613    -3.747    -0.134      0.51
   CO3-2           1.644e-04   3.687e-05    -3.784    -4.433    -0.649     -1.10
   SrCO3           9.444e-06   1.068e-05    -5.025    -4.971     0.053    -14.13
   MgCO3           9.310e-06   1.053e-05    -5.031    -4.978     0.053    -17.09
   HCO3-           3.612e-07   2.486e-07    -6.442    -6.604    -0.162     26.42
   NaHCO3          5.740e-08   6.490e-08    -7.241    -7.188     0.053     29.13
   CaHCO3+         4.854e-08   3.341e-08    -7.314    -7.476    -0.162     10.33
   SrHCO3+         2.507e-09   1.726e-09    -8.601    -8.763    -0.162     (0)  
   MgHCO3+         1.184e-09   8.704e-10    -8.927    -9.060    -0.134      6.14
   CO2             1.588e-13   1.796e-13   -12.799   -12.746     0.053     30.26
Ca            5.122e-02
   Ca+2            4.092e-02   1.053e-02    -1.388    -1.977    -0.589    -16.48
   CaOH+           7.402e-03   5.441e-03    -2.131    -2.264    -0.134     (0)  
   CaSO4           2.321e-03   2.624e-03    -2.634    -2.581     0.053      7.50
   CaCO3           5.769e-04   6.523e-04    -3.239    -3.186     0.053    -14.60
   CaHCO3+         4.854e-08   3.341e-08    -7.314    -7.476    -0.162     10.33
   CaHSO4+         7.420e-15   5.454e-15   -14.130   -14.263    -0.134     (0)  
Cl            4.218e-01
   Cl-             4.218e-01   2.695e-01    -0.375    -0.569    -0.194     18.70
H(0)          1.252e-24
   H2              6.261e-25   7.079e-25   -24.203   -24.150     0.053     28.61
K             4.419e-03
   K+              4.355e-03   2.783e-03    -2.361    -2.556    -0.194      9.65
   KSO4-           3.727e-05   2.740e-05    -4.429    -4.562    -0.134     (0)  
   KOH             2.656e-05   3.004e-05    -4.576    -4.522     0.053     (0)  
Mg            5.724e-03
   MgOH+           4.601e-03   3.382e-03    -2.337    -2.471    -0.134     (0)  
   Mg+2            1.027e-03   2.992e-04    -2.988    -3.524    -0.536    -20.53
   MgSO4           8.692e-05   9.828e-05    -4.061    -4.008     0.053      5.84
   MgCO3           9.310e-06   1.053e-05    -5.031    -4.978     0.053    -17.09
   MgHCO3+         1.184e-09   8.704e-10    -8.927    -9.060    -0.134      6.14
Na            3.716e-01
   Na+             3.688e-01   2.611e-01    -0.433    -0.583    -0.150     -0.65
   NaSO4-          2.494e-03   1.833e-03    -2.603    -2.737    -0.134     30.42
   NaCO3-          2.438e-04   1.792e-04    -3.613    -3.747    -0.134      0.51
   NaHCO3          5.740e-08   6.490e-08    -7.241    -7.188     0.053     29.13
   NaOH            7.203e-13   8.145e-13   -12.142   -12.089     0.053     (0)  
Np(4)         8.133e-11
   Np(OH)4         8.133e-11   9.197e-11   -10.090   -10.036     0.053     (0)  
   Np+4            0.000e+00   0.000e+00   -48.041   -50.179    -2.138     (0)  
Np(5)         1.910e-11
   NpO2(OH)2-      1.310e-11   9.630e-12   -10.883   -11.016    -0.134     (0)  
   NpO2OH          5.458e-12   6.172e-12   -11.263   -11.210     0.053     (0)  
   NpO2+           5.381e-13   3.956e-13   -12.269   -12.403    -0.134     (0)  
O(0)          0.000e+00
   O2              0.000e+00   0.000e+00   -44.147   -44.094     0.053     30.40
S(-2)         0.000e+00
   S-2             0.000e+00   0.000e+00   -65.417   -66.094    -0.677     (0)  
   HS-             0.000e+00   0.000e+00   -65.474   -65.676    -0.203     21.26
   H2S             0.000e+00   0.000e+00   -71.288   -71.235     0.053     37.16
S(6)          1.205e-02
   SO4-2           7.003e-03   1.401e-03    -2.155    -2.854    -0.699     13.71
   NaSO4-          2.494e-03   1.833e-03    -2.603    -2.737    -0.134     30.42
   CaSO4           2.321e-03   2.624e-03    -2.634    -2.581     0.053      7.50
   SrSO4           1.096e-04   1.240e-04    -3.960    -3.907     0.053     24.24
   MgSO4           8.692e-05   9.828e-05    -4.061    -4.008     0.053      5.84
   KSO4-           3.727e-05   2.740e-05    -4.429    -4.562    -0.134     (0)  
   HSO4-           5.860e-14   4.308e-14   -13.232   -13.366    -0.134     35.83
   CaHSO4+         7.420e-15   5.454e-15   -14.130   -14.263    -0.134     (0)  
   AlSO4+          3.725e-33   2.739e-33   -32.429   -32.562    -0.134     (0)  
   Al(SO4)2-       1.651e-34   1.213e-34   -33.782   -33.916    -0.134     (0)  
   AlHSO4+2        0.000e+00   0.000e+00   -45.580   -46.115    -0.535     (0)  
Si            2.009e-03
   H3SiO4-         1.302e-03   9.570e-04    -2.885    -3.019    -0.134     28.63
   H2SiO4-2        7.049e-04   2.059e-04    -3.152    -3.686    -0.535     (0)  
   H4SiO4          1.815e-06   2.052e-06    -5.741    -5.688     0.053     52.08
Sr            2.009e-03
   Sr+2            1.782e-03   4.537e-04    -2.749    -3.343    -0.594    -17.30
   SrSO4           1.096e-04   1.240e-04    -3.960    -3.907     0.053     24.24
   SrOH+           1.070e-04   7.244e-05    -3.971    -4.140    -0.169     (0)  
   SrCO3           9.444e-06   1.068e-05    -5.025    -4.971     0.053    -14.13
   SrHCO3+         2.507e-09   1.726e-09    -8.601    -8.763    -0.162     (0)  

------------------------------Saturation indices-------------------------------

	Phase               SI   log IAP   log K(298 K,   1 atm)

	Al(OH)3(a)       -6.53      4.27   10.80  Al(OH)3
	Albite           -5.49    -23.49  -18.00  NaAlSi3O8
	Alunite         -31.53    -32.93   -1.40  KAl3(SO4)2(OH)6
	Anhydrite        -0.59     -4.83   -4.24  CaSO4
	Anorthite        -5.39    -25.10  -19.71  CaAl2Si2O8
	Aragonite         1.93     -6.41   -8.34  CaCO3
	Ca-Montmorillonite -14.84    -59.87  -45.03  Ca0.165Al2.33Si3.67O10(OH)2
	Calcite           2.07     -6.41   -8.48  CaCO3
	Celestite         0.46     -6.20   -6.66  SrSO4
	CH4(g)          -69.50    -72.34   -2.84  CH4
	Chalcedony       -2.12     -5.67   -3.55  SiO2
	Chlorite(14A)    30.48     98.86   68.38  Mg5Al2Si3O10(OH)8
	Chrysotile       20.84     53.05   32.20  Mg3Si2O5(OH)4
	CO2(g)          -11.29    -12.75   -1.46  CO2
	Dolomite          2.72    -14.37  -17.09  CaMg(CO3)2
	Fix_pe            2.00      2.00    0.00  e-
	Gibbsite         -3.84      4.27    8.11  Al(OH)3
	Gypsum           -0.26     -4.84   -4.58  CaSO4:2H2O
	H2(g)           -21.05    -24.15   -3.10  H2
	H2O(g)           -1.51     -0.01    1.50  H2O
	H2S(g)          -70.18    -78.18   -7.99  H2S
	Halite           -2.73     -1.15    1.58  NaCl
	Illite          -10.55    -50.82  -40.27  K0.6Mg0.25Al2.3Si3.5O10(OH)2
	K-feldspar       -4.89    -25.47  -20.57  KAlSi3O8
	K-mica           -6.95      5.75   12.70  KAl3Si3O10(OH)2
	Kaolinite       -10.24     -2.80    7.43  Al2Si2O5(OH)4
	Neptunium(IV)hydroxide  -0.95     -0.21    0.74  Np(OH)4
	Neptunium(IV)oxide   2.49     -0.19   -2.68  NpO2
	Neptunium(IV)oxide(am)  -1.72     -0.19    1.53  NpO2
	O2(g)           -41.20    -44.09   -2.89  O2
	Quartz           -1.69     -5.67   -3.98  SiO2
	Sepiolite        10.13     25.89   15.76  Mg2Si3O7.5OH:3H2O
	Sepiolite(d)      7.23     25.89   18.66  Mg2Si3O7.5OH:3H2O
	SiO2(a)          -2.96     -5.67   -2.71  SiO2
	Strontianite      1.49     -7.78   -9.27  SrCO3
	Sulfur          -55.12    -50.23    4.88  S
	Talc             20.31     41.70   21.40  Mg3Si4O10(OH)2


------------------
End of simulation.
------------------

------------------------------------
Reading input data for simulation 9.
------------------------------------

	USE solution 1
	EQUILIBRIUM_PHASES 1
	Fix_pe 1  O2(g)
	END
-----------------------------------------
Beginning of batch-reaction calculations.
-----------------------------------------

Reaction step 1.

Using solution 1.	Reference Backfill water
Using pure phase assemblage 1.	

-------------------------------Phase assemblage--------------------------------

                                                      Moles in assemblage
Phase               SI  log IAP  log K(T, P)   Initial       Final       Delta

Fix_pe            1.00     1.00      0.00
	 O2                 is reactant       1.000e+01   1.000e+01   7.496e-12

-----------------------------Solution composition------------------------------

	Elements           Molality       Moles

	Al                1.707e-06   1.707e-06
	C                 1.004e-03   1.004e-03
	Ca                5.122e-02   5.122e-02
	Cl                4.218e-01   4.218e-01
	K                 4.419e-03   4.419e-03
	Mg                5.724e-03   5.724e-03
	Na                3.716e-01   3.716e-01
	Np                1.004e-10   1.004e-10
	S                 1.205e-02   1.205e-02
	Si                2.009e-03   2.009e-03
	Sr                2.009e-03   2.009e-03

----------------------------Description of solution----------------------------

                                       pH  =  12.500      Charge balance
                                       pe  =  -1.000      Adjusted to redox equilibrium
       Specific Conductance (uS/cm, 25 oC) = 48340
                          Density (g/cm3)  =   1.01829
                        Activity of water  =   0.984
                           Ionic strength  =   5.337e-01
                       Mass of water (kg)  =   1.000e+00
                 Total alkalinity (eq/kg)  =   6.660e-02
[...]
 Percent error, 100*(Cat-|An|)/(Cat+|An|)  =  -1.93
                               Iterations  =   5
                                  Total H  = 1.110796e+02
                                  Total O  = 5.562735e+01

----------------------------Distribution of species----------------------------

                                               Log       Log       Log    mole V
   Species          Molality    Activity  Molality  Activity     Gamma   cm3/mol

   OH-             4.973e-02   3.120e-02    -1.303    -1.506    -0.203     -2.56
   H+              4.149e-13   3.162e-13   -12.382   -12.500    -0.118      0.00
   H2O             5.551e+01   9.844e-01     1.744    -0.007     0.000     18.07
Al            1.707e-06
   Al(OH)4-        1.707e-06   1.255e-06    -5.768    -5.901    -0.134     (0)  
   Al(OH)3         1.892e-13   2.139e-13   -12.723   -12.670     0.053     (0)  
   Al(OH)2+        6.344e-19   4.663e-19   -18.198   -18.331    -0.134     (0)  
   AlOH+2          6.545e-26   1.911e-26   -25.184   -25.719    -0.535    -25.05
   Al+3            7.117e-33   6.181e-34   -32.148   -33.209    -1.061    -38.35
   AlSO4+          3.725e-33   2.739e-33   -32.429   -32.562    -0.134     (0)  
   Al(SO4)2-       1.651e-34   1.213e-34   -33.782   -33.916    -0.134     (0)  
   AlHSO4+2        0.000e+00   0.000e+00   -45.580   -46.115    -0.535     (0)  
C(-4)         0.000e+00
   CH4             0.000e+00   0.000e+00  -104.395  -104.342     0.053     32.22
C(4)          1.004e-03
   CaCO3           5.769e-04   6.523e-04    -3.239    -3.186     0.053    -14.60
   NaCO3-          2.438e-04   1.792e-04    -3.613    -3.747    -0.134      0.51
   CO3-2           1.644e-04   3.687e-05    -3.784    -4.433    -0.649     -1.10
   SrCO3           9.444e-06   1.068e-05    -5.025    -4.971     0.053    -14.13
   MgCO3           9.310e-06   1.053e-05    -5.031    -4.978     0.053    -17.09
   HCO3-           3.612e-07   2.486e-07    -6.442    -6.604    -0.162     26.42
   NaHCO3          5.740e-08   6.490e-08    -7.241    -7.188     0.053     29.13
   CaHCO3+         4.854e-08   3.341e-08    -7.314    -7.476    -0.162     10.33
   SrHCO3+         2.507e-09   1.726e-09    -8.601    -8.763    -0.162     (0)  
   MgHCO3+         1.184e-09   8.704e-10    -8.927    -9.060    -0.134      6.14
   CO2             1.588e-13   1.796e-13   -12.799   -12.746     0.053     30.26
Ca            5.122e-02
   Ca+2            4.092e-02   1.053e-02    -1.388    -1.977    -0.589    -16.48
   CaOH+           7.402e-03   5.441e-03    -2.131    -2.264    -0.134     (0)  
   CaSO4           2.321e-03   2.624e-03    -2.634    -2.581     0.053      7.50
   CaCO3           5.769e-04   6.523e-04    -3.239    -3.186     0.053    -14.60
   CaHCO3+         4.854e-08   3.341e-08    -7.314    -7.476    -0.162     10.33
   CaHSO4+         7.420e-15   5.454e-15   -14.130   -14.263    -0.134     (0)  
Cl            4.218e-01
   Cl-             4.218e-01   2.695e-01    -0.375    -0.569    -0.194     18.70
H(0)          1.252e-32
   H2              6.261e-33   7.079e-33   -32.203   -32.150     0.053     28.61
K             4.419e-03
   K+              4.355e-03   2.783e-03    -2.361    -2.556    -0.194      9.65
   KSO4-           3.727e-05   2.740e-05    -4.429    -4.562    -0.134     (0)  
   KOH             2.656e-05   3.004e-05    -4.576    -4.522     0.053     (0)  
Mg            5.724e-03
   MgOH+           4.601e-03   3.382e-03    -2.337    -2.471    -0.134     (0)  
   Mg+2            1.027e-03   2.992e-04    -2.988    -3.524    -0.536    -20.53
   MgSO4           8.692e-05   9.828e-05    -4.061    -4.008     0.053      5.84
   MgCO3           9.310e-06   1.053e-05    -5.031    -4.978     0.053    -17.09
   MgHCO3+         1.184e-09   8.704e-10    -8.927    -9.060    -0.134      6.14
Na            3.716e-01
   Na+             3.688e-01   2.611e-01    -0.433    -0.583    -0.150     -0.65
   NaSO4-          2.494e-03   1.833e-03    -2.603    -2.737    -0.134     30.42
   NaCO3-          2.438e-04   1.792e-04    -3.613    -3.747    -0.134      0.51
   NaHCO3          5.740e-08   6.490e-08    -7.241    -7.188     0.053     29.13
   NaOH            7.203e-13   8.145e-13   -12.142   -12.089     0.053     (0)  
Np(4)         4.275e-14
   Np(OH)4         4.275e-14   4.834e-14   -13.369   -13.316     0.053     (0)  
   Np+4            0.000e+00   0.000e+00   -51.320   -53.458    -2.138     (0)  
Np(5)         1.004e-10
   NpO2(OH)2-      6.886e-11   5.062e-11   -10.162   -10.296    -0.134     (0)  
   NpO2OH          2.869e-11   3.245e-11   -10.542   -10.489     0.053     (0)  
   NpO2+           2.829e-12   2.080e-12   -11.548   -11.682    -0.134     (0)  
O(0)          1.426e-28
   O2              7.129e-29   8.061e-29   -28.147   -28.094     0.053     30.40
S(-2)         0.000e+00
   S-2             0.000e+00   0.000e+00   -97.417   -98.094    -0.677     (0)  
   HS-             0.000e+00   0.000e+00   -97.474   -97.676    -0.203     21.26
   H2S             0.000e+00   0.000e+00  -103.288  -103.235     0.053     37.16
S(6)          1.205e-02
   SO4-2           7.003e-03   1.401e-03    -2.155    -2.854    -0.699     13.71
   NaSO4-          2.494e-03   1.833e-03    -2.603    -2.737    -0.134     30.42
   CaSO4           2.321e-03   2.624e-03    -2.634    -2.581     0.053      7.50
   SrSO4           1.096e-04   1.240e-04    -3.960    -3.907     0.053     24.24
   MgSO4           8.692e-05   9.828e-05    -4.061    -4.008     0.053      5.84
   KSO4-           3.727e-05   2.740e-05    -4.429    -4.562    -0.134     (0)  
   HSO4-           5.860e-14   4.308e-14   -13.232   -13.366    -0.134     35.83
   CaHSO4+         7.420e-15   5.454e-15   -14.130   -14.263    -0.134     (0)  
   AlSO4+          3.725e-33   2.739e-33   -32.429   -32.562    -0.134     (0)  
   Al(SO4)2-       1.651e-34   1.213e-34   -33.782   -33.916    -0.134     (0)  
   AlHSO4+2        0.000e+00   0.000e+00   -45.580   -46.115    -0.535     (0)  
Si            2.009e-03
   H3SiO4-         1.302e-03   9.570e-04    -2.885    -3.019    -0.134     28.63
   H2SiO4-2        7.049e-04   2.059e-04    -3.152    -3.686    -0.535     (0)  
   H4SiO4          1.815e-06   2.052e-06    -5.741    -5.688     0.053     52.08
Sr            2.009e-03
   Sr+2            1.782e-03   4.537e-04    -2.749    -3.343    -0.594    -17.30
   SrSO4           1.096e-04   1.240e-04    -3.960    -3.907     0.053     24.24
   SrOH+           1.070e-04   7.244e-05    -3.971    -4.140    -0.169     (0)  
   SrCO3           9.444e-06   1.068e-05    -5.025    -4.971     0.053    -14.13
   SrHCO3+         2.507e-09   1.726e-09    -8.601    -8.763    -0.162     (0)  

------------------------------Saturation indices-------------------------------

	Phase               SI   log IAP   log K(298 K,   1 atm)

	Al(OH)3(a)       -6.53      4.27   10.80  Al(OH)3
	Albite           -5.49    -23.49  -18.00  NaAlSi3O8
	Alunite         -31.53    -32.93   -1.40  KAl3(SO4)2(OH)6
	Anhydrite        -0.59     -4.83   -4.24  CaSO4
	Anorthite        -5.39    -25.10  -19.71  CaAl2Si2O8
	Aragonite         1.93     -6.41   -8.34  CaCO3
	Ca-Montmorillonite -14.84    -59.87  -45.03  Ca0.165Al2.33Si3.67O10(OH)2
	Calcite           2.07     -6.41   -8.48  CaCO3
	Celestite         0.46     -6.20   -6.66  SrSO4
	CH4(g)         -101.50   -104.34   -2.84  CH4
	Chalcedony       -2.12     -5.67   -3.55  SiO2
	Chlorite(14A)    30.48     98.86   68.38  Mg5Al2Si3O10(OH)8
	Chrysotile       20.84     53.05   32.20  Mg3Si2O5(OH)4
	CO2(g)          -11.29    -12.75   -1.46  CO2
	Dolomite          2.72    -14.37  -17.09  CaMg(CO3)2
	Fix_pe           -2.00     -2.00    0.00  e-
	Gibbsite         -3.84      4.27    8.11  Al(OH)3
	Gypsum           -0.26     -4.84   -4.58  CaSO4:2H2O
	H2(g)           -29.05    -32.15   -3.10  H2
	H2O(g)           -1.51     -0.01    1.50  H2O
	H2S(g)         -102.18   -110.18   -7.99  H2S
	Halite           -2.73     -1.15    1.58  NaCl
	Illite          -10.55    -50.82  -40.27  K0.6Mg0.25Al2.3Si3.5O10(OH)2
	K-feldspar       -4.89    -25.47  -20.57  KAlSi3O8
	K-mica           -6.95      5.75   12.70  KAl3Si3O10(OH)2
	Kaolinite       -10.24     -2.80    7.43  Al2Si2O5(OH)4
	Neptunium(IV)hydroxide  -4.23     -3.49    0.74  Np(OH)4
	Neptunium(IV)oxide  -0.79     -3.47   -2.68  NpO2
	Neptunium(IV)oxide(am)  -5.00     -3.47    1.53  NpO2
	O2(g)           -25.20    -28.09   -2.89  O2
	Quartz           -1.69     -5.67   -3.98  SiO2
	Sepiolite        10.13     25.89   15.76  Mg2Si3O7.5OH:3H2O
	Sepiolite(d)      7.23     25.89   18.66  Mg2Si3O7.5OH:3H2O
	SiO2(a)          -2.96     -5.67   -2.71  SiO2
	Strontianite      1.49     -7.78   -9.27  SrCO3
	Sulfur          -79.12    -74.23    4.88  S
	Talc             20.31     41.70   21.40  Mg3Si4O10(OH)2


------------------
End of simulation.
------------------

-------------------------------------
Reading input data for simulation 13.
-------------------------------------

	USE solution 1
	EQUILIBRIUM_PHASES 1
	Fix_pe -3  O2(g)
	END
-----------------------------------------
Beginning of batch-reaction calculations.
-----------------------------------------

Reaction step 1.

Using solution 1.	Reference Backfill water
Using pure phase assemblage 1.	

-------------------------------Phase assemblage--------------------------------

                                                      Moles in assemblage
Phase               SI  log IAP  log K(T, P)   Initial       Final       Delta

Fix_pe           -3.00    -3.00      0.00
	 O2                 is reactant       1.000e+01   1.000e+01  -3.553e-15

-----------------------------Solution composition------------------------------

	Elements           Molality       Moles

	Al                1.707e-06   1.707e-06
	C                 1.004e-03   1.004e-03
	Ca                5.122e-02   5.122e-02
	Cl                4.218e-01   4.218e-01
	K                 4.419e-03   4.419e-03
	Mg                5.724e-03   5.724e-03
	Na                3.716e-01   3.716e-01
	Np                1.004e-10   1.004e-10
	S                 1.205e-02   1.205e-02
	Si                2.009e-03   2.009e-03
	Sr                2.009e-03   2.009e-03

----------------------------Description of solution----------------------------

                                       pH  =  12.500      Charge balance
                                       pe  =   3.000      Adjusted to redox equilibrium
       Specific Conductance (uS/cm, 25 oC) = 48340
                          Density (g/cm3)  =   1.01829
                        Activity of water  =   0.984
                           Ionic strength  =   5.337e-01
                       Mass of water (kg)  =   1.000e+00
                 Total alkalinity (eq/kg)  =   6.660e-02
                       Total CO2 (mol/kg)  =   1.004e-03
                      Temperature (deg C)  =  25.00
                  Electrical balance (eq)  =  -1.859e-02
 Percent error, 100*(Cat-|An|)/(Cat+|An|)  =  -1.93
                               Iterations  =   5
                                  Total H  = 1.110796e+02
                                  Total O  = 5.562735e+01

----------------------------Distribution of species----------------------------

                                               Log       Log       Log    mole V
   Species          Molality    Activity  Molality  Activity     Gamma   cm3/mol

   OH-             4.973e-02   3.120e-02    -1.303    -1.506    -0.203     -2.56
   H+              4.149e-13   3.162e-13   -12.382   -12.500    -0.118      0.00
   H2O             5.551e+01   9.844e-01     1.744    -0.007     0.000     18.07
Al            1.707e-06
   Al(OH)4-        1.707e-06   1.255e-06    -5.768    -5.901    -0.134     (0)  
   Al(OH)3         1.892e-13   2.139e-13   -12.723   -12.670     0.053     (0)  
   Al(OH)2+        6.344e-19   4.663e-19   -18.198   -18.331    -0.134     (0)  
   AlOH+2          6.545e-26   1.911e-26   -25.184   -25.719    -0.535    -25.05
   Al+3            7.117e-33   6.181e-34   -32.148   -33.209    -1.061    -38.35
   AlSO4+          3.725e-33   2.739e-33   -32.429   -32.562    -0.134     (0)  
   Al(SO4)2-       1.651e-34   1.213e-34   -33.782   -33.916    -0.134     (0)  
   AlHSO4+2        0.000e+00   0.000e+00   -45.580   -46.115    -0.535     (0)  
C(-4)         0.000e+00
   CH4             0.000e+00   0.000e+00  -112.395  -112.342     0.053     32.22
C(4)          1.004e-03
   CaCO3           5.769e-04   6.523e-04    -3.239    -3.186     0.053    -14.60
   NaCO3-          2.438e-04   1.792e-04    -3.613    -3.747    -0.134      0.51
   CO3-2           1.644e-04   3.687e-05    -3.784    -4.433    -0.649     -1.10
   SrCO3           9.444e-06   1.068e-05    -5.025    -4.971     0.053    -14.13
   MgCO3           9.310e-06   1.053e-05    -5.031    -4.978     0.053    -17.09
   HCO3-           3.612e-07   2.486e-07    -6.442    -6.604    -0.162     26.42
   NaHCO3          5.740e-08   6.490e-08    -7.241    -7.188     0.053     29.13
   CaHCO3+         4.854e-08   3.341e-08    -7.314    -7.476    -0.162     10.33
   SrHCO3+         2.507e-09   1.726e-09    -8.601    -8.763    -0.162     (0)  
   MgHCO3+         1.184e-09   8.704e-10    -8.927    -9.060    -0.134      6.14
   CO2             1.588e-13   1.796e-13   -12.799   -12.746     0.053     30.26
Ca            5.122e-02
   Ca+2            4.092e-02   1.053e-02    -1.388    -1.977    -0.589    -16.48
   CaOH+           7.402e-03   5.441e-03    -2.131    -2.264    -0.134     (0)  
   CaSO4           2.321e-03   2.624e-03    -2.634    -2.581     0.053      7.50
   CaCO3           5.769e-04   6.523e-04    -3.239    -3.186     0.053    -14.60
   CaHCO3+         4.854e-08   3.341e-08    -7.314    -7.476    -0.162     10.33
   CaHSO4+         7.420e-15   5.454e-15   -14.130   -14.263    -0.134     (0)  
Cl            4.218e-01
   Cl-             4.218e-01   2.695e-01    -0.375    -0.569    -0.194     18.70
H(0)          1.252e-34
   H2              6.261e-35   7.079e-35   -34.203   -34.150     0.053     28.61
K             4.419e-03
   K+              4.355e-03   2.783e-03    -2.361    -2.556    -0.194      9.65
   KSO4-           3.727e-05   2.740e-05    -4.429    -4.562    -0.134     (0)  
   KOH             2.656e-05   3.004e-05    -4.576    -4.522     0.053     (0)  
Mg            5.724e-03
   MgOH+           4.601e-03   3.382e-03    -2.337    -2.471    -0.134     (0)  
   Mg+2            1.027e-03   2.992e-04    -2.988    -3.524    -0.536    -20.53
   MgSO4           8.692e-05   9.828e-05    -4.061    -4.008     0.053      5.84
   MgCO3           9.310e-06   1.053e-05    -5.031    -4.978     0.053    -17.09
   MgHCO3+         1.184e-09   8.704e-10    -8.927    -9.060    -0.134      6.14
Na            3.716e-01
   Na+             3.688e-01   2.611e-01    -0.433    -0.583    -0.150     -0.65
   NaSO4-          2.494e-03   1.833e-03    -2.603    -2.737    -0.134     30.42
   NaCO3-          2.438e-04   1.792e-04    -3.613    -3.747    -0.134      0.51
   NaHCO3          5.740e-08   6.490e-08    -7.241    -7.188     0.053     29.13
   NaOH            7.203e-13   8.145e-13   -12.142   -12.089     0.053     (0)  
Np(4)         4.277e-15
   Np(OH)4         4.277e-15   4.836e-15   -14.369   -14.315     0.053     (0)  
   Np+4            0.000e+00   0.000e+00   -52.320   -54.458    -2.138     (0)  
Np(5)         1.004e-10
   NpO2(OH)2-      6.889e-11   5.064e-11   -10.162   -10.295    -0.134     (0)  
   NpO2OH          2.870e-11   3.246e-11   -10.542   -10.489     0.053     (0)  
   NpO2+           2.830e-12   2.080e-12   -11.548   -11.682    -0.134     (0)  
O(0)          1.426e-24
   O2              7.129e-25   8.061e-25   -24.147   -24.094     0.053     30.40
S(-2)         0.000e+00
   S-2             0.000e+00   0.000e+00  -105.417  -106.094    -0.677     (0)  
   HS-             0.000e+00   0.000e+00  -105.474  -105.676    -0.203     21.26
   H2S             0.000e+00   0.000e+00  -111.288  -111.235     0.053     37.16
S(6)          1.205e-02
   SO4-2           7.003e-03   1.401e-03    -2.155    -2.854    -0.699     13.71
   NaSO4-          2.494e-03   1.833e-03    -2.603    -2.737    -0.134     30.42
   CaSO4           2.321e-03   2.624e-03    -2.634    -2.581     0.053      7.50
   SrSO4           1.096e-04   1.240e-04    -3.960    -3.907     0.053     24.24
   MgSO4           8.692e-05   9.828e-05    -4.061    -4.008     0.053      5.84
   KSO4-           3.727e-05   2.740e-05    -4.429    -4.562    -0.134     (0)  
   HSO4-           5.860e-14   4.308e-14   -13.232   -13.366    -0.134     35.83
   CaHSO4+         7.420e-15   5.454e-15   -14.130   -14.263    -0.134     (0)  
   AlSO4+          3.725e-33   2.739e-33   -32.429   -32.562    -0.134     (0)  
   Al(SO4)2-       1.651e-34   1.213e-34   -33.782   -33.916    -0.134     (0)  
   AlHSO4+2        0.000e+00   0.000e+00   -45.580   -46.115    -0.535     (0)  
Si            2.009e-03
   H3SiO4-         1.302e-03   9.570e-04    -2.885    -3.019    -0.134     28.63
   H2SiO4-2        7.049e-04   2.059e-04    -3.152    -3.686    -0.535     (0)  
   H4SiO4          1.815e-06   2.052e-06    -5.741    -5.688     0.053     52.08
Sr            2.009e-03
   Sr+2            1.782e-03   4.537e-04    -2.749    -3.343    -0.594    -17.30
   SrSO4           1.096e-04   1.240e-04    -3.960    -3.907     0.053     24.24
   SrOH+           1.070e-04   7.244e-05    -3.971    -4.140    -0.169     (0)  
   SrCO3           9.444e-06   1.068e-05    -5.025    -4.971     0.053    -14.13
   SrHCO3+         2.507e-09   1.726e-09    -8.601    -8.763    -0.162     (0)  

------------------------------Saturation indices-------------------------------

	Phase               SI   log IAP   log K(298 K,   1 atm)

	Al(OH)3(a)       -6.53      4.27   10.80  Al(OH)3
	Albite           -5.49    -23.49  -18.00  NaAlSi3O8
	Alunite         -31.53    -32.93   -1.40  KAl3(SO4)2(OH)6
	Anhydrite        -0.59     -4.83   -4.24  CaSO4
	Anorthite        -5.39    -25.10  -19.71  CaAl2Si2O8
	Aragonite         1.93     -6.41   -8.34  CaCO3
	Ca-Montmorillonite -14.84    -59.87  -45.03  Ca0.165Al2.33Si3.67O10(OH)2
	Calcite           2.07     -6.41   -8.48  CaCO3
	Celestite         0.46     -6.20   -6.66  SrSO4
	CH4(g)         -109.50   -112.34   -2.84  CH4
	Chalcedony       -2.12     -5.67   -3.55  SiO2
	Chlorite(14A)    30.48     98.86   68.38  Mg5Al2Si3O10(OH)8
	Chrysotile       20.84     53.05   32.20  Mg3Si2O5(OH)4
	CO2(g)          -11.29    -12.75   -1.46  CO2
	Dolomite          2.72    -14.37  -17.09  CaMg(CO3)2
	Fix_pe           -3.00     -3.00    0.00  e-
	Gibbsite         -3.84      4.27    8.11  Al(OH)3
	Gypsum           -0.26     -4.84   -4.58  CaSO4:2H2O
	H2(g)           -31.05    -34.15   -3.10  H2
	H2O(g)           -1.51     -0.01    1.50  H2O
	H2S(g)         -110.18   -118.18   -7.99  H2S
	Halite           -2.73     -1.15    1.58  NaCl
	Illite          -10.55    -50.82  -40.27  K0.6Mg0.25Al2.3Si3.5O10(OH)2
	K-feldspar       -4.89    -25.47  -20.57  KAlSi3O8
	K-mica           -6.95      5.75   12.70  KAl3Si3O10(OH)2
	Kaolinite       -10.24     -2.80    7.43  Al2Si2O5(OH)4
	Neptunium(IV)hydroxide  -5.23     -4.49    0.74  Np(OH)4
	Neptunium(IV)oxide  -1.79     -4.47   -2.68  NpO2
	Neptunium(IV)oxide(am)  -6.00     -4.47    1.53  NpO2
	O2(g)           -21.20    -24.09   -2.89  O2
	Quartz           -1.69     -5.67   -3.98  SiO2
	Sepiolite        10.13     25.89   15.76  Mg2Si3O7.5OH:3H2O
	Sepiolite(d)      7.23     25.89   18.66  Mg2Si3O7.5OH:3H2O
	SiO2(a)          -2.96     -5.67   -2.71  SiO2
	Strontianite      1.49     -7.78   -9.27  SrCO3
	Sulfur          -85.12    -80.23    4.88  S
	Talc             20.31     41.70   21.40  Mg3Si4O10(OH)2


------------------
End of simulation.
------------------

-------------------------------------
Reading input data for simulation 14.
-------------------------------------

------------------------------
End of Run after 0.06 Seconds.
------------------------------

