   Input file: fix_P
  Output file: fix_P.out
Database file: ../database/vreeqc.dat

------------------
Reading data base.
------------------

	KNOBS
	SOLUTION_MASTER_SPECIES
	SOLUTION_SPECIES
	PHASES
	EXCHANGE_MASTER_SPECIES
	EXCHANGE_SPECIES
	SURFACE_MASTER_SPECIES
	SURFACE_SPECIES
	RATES
	END
------------------------------------
Reading input data for simulation 1.
------------------------------------

	database ../database/vreeqc.dat
	GAS_PHASE 1
	     fixed_pressure
	     volume 0.1
	     CO2(g) 1 # dissolves completely, solution pressure must be reset to initial
		 pressure 1000
	SOLUTION 1
	 pH 7 charge
	 Ca 1 Calcite
	 C(4) 1 CO2(g) -1
	 pressure 1000
	EQUILIBRIUM_PHASES 1
	 Calcite
	END
-------------------------------------------
Beginning of initial solution calculations.
-------------------------------------------

Initial solution 1.	

-----------------------------Solution composition------------------------------

	Elements           Molality       Moles

	C(4)              1.148e-02   1.148e-02  Equilibrium with CO2(g)
	Ca                5.319e-03   5.319e-03  Equilibrium with Calcite

----------------------------Description of solution----------------------------

                                       pH  =   6.912      Charge balance
                                       pe  =   4.000    
       Specific Conductance (uS/cm, 25 oC) = 938
                          Density (g/cm3)  =   1.04376
                        Activity of water  =   1.000
                           Ionic strength  =   1.563e-02
                       Mass of water (kg)  =   1.000e+00
                 Total alkalinity (eq/kg)  =   1.064e-02
                       Total CO2 (mol/kg)  =   1.148e-02
                      Temperature (deg C)  =  25.00
                           Pressure (atm)  = 1000.00
                  Electrical balance (eq)  =   3.538e-15
 Percent error, 100*(Cat-|An|)/(Cat+|An|)  =   0.00
                               Iterations  =   8
                                  Total H  = 1.110230e+02
                                  Total O  = 5.553979e+01

----------------------------Distribution of species----------------------------

                                            Log       Log         Log     mole V
   Species          Molality    Activity  Molality  Activity     Gamma   cm3/mol

   OH-             2.133e-07   1.877e-07    -6.671    -6.727    -0.056     -3.08
   H+              1.363e-07   1.224e-07    -6.866    -6.912    -0.046      0.00
   H2O             5.551e+01   9.997e-01     1.744    -0.000     0.000     17.27
C(4)          1.148e-02
   HCO3-           1.043e-02   9.249e-03    -1.982    -2.034    -0.052     24.37
   CO2             8.616e-04   8.647e-04    -3.065    -3.063     0.002     33.55
   CaHCO3+         1.645e-04   1.459e-04    -3.784    -3.836    -0.052     30.06
   CO3-2           1.790e-05   1.107e-05    -4.747    -4.956    -0.208     -3.55
   CaCO3           4.886e-06   4.903e-06    -5.311    -5.310     0.002     40.00
Ca            5.319e-03
   Ca+2            5.150e-03   3.184e-03    -2.288    -2.497    -0.209    -17.48
   CaHCO3+         1.645e-04   1.459e-04    -3.784    -3.836    -0.052     30.06
   CaCO3           4.886e-06   4.903e-06    -5.311    -5.310     0.002     40.00
   CaOH+           4.889e-09   4.315e-09    -8.311    -8.365    -0.054     (0)  
H(0)          9.347e-26
   H2              4.673e-26   4.690e-26   -25.330   -25.329     0.002     20.00
O(0)          0.000e+00
   O2              0.000e+00   0.000e+00   -42.442   -42.440     0.002     35.00

------------------------------Saturation indices-------------------------------

	Phase               SI   log IAP   log K(298 K, 1000 atm)

	Aragonite        -0.09     -7.45   -7.36  CaCO3
	Calcite          -0.00     -7.45   -7.45  CaCO3
	CO2(g)           -1.96     -3.06   -1.10  CO2	 Pressure   0.1 atm, phi 0.999.
	H2(g)           -22.23    -25.33   -3.10  H2
	H2O(g)           -1.20     -0.00    1.20  H2O
	O2(g)           -38.94    -42.44   -3.50  O2


-----------------------------------------
Beginning of batch-reaction calculations.
-----------------------------------------

Reaction step 1.

Using solution 1.	
Using pure phase assemblage 1.	
Using gas phase 1.	

----------------Fixed-pressure gas phase 1 dissolved completely----------------

-------------------------------Phase assemblage--------------------------------

                                                      Moles in assemblage
Phase               SI  log IAP  log K(T, P)   Initial       Final       Delta

Calcite           0.00    -8.48     -8.48    1.000e+01   1.000e+01   6.705e-04

-----------------------------Solution composition------------------------------

	Elements           Molality       Moles

	C                 1.492e-02   1.492e-02
	Ca                4.648e-03   4.648e-03

----------------------------Description of solution----------------------------

                                       pH  =   6.504      Charge balance
                                       pe  =  -0.655      Adjusted to redox equilibrium
       Specific Conductance (uS/cm, 25 oC) = 809
                          Density (g/cm3)  =   0.99770
                        Activity of water  =   1.000
                           Ionic strength  =   1.330e-02
                       Mass of water (kg)  =   1.000e+00
                 Total alkalinity (eq/kg)  =   9.297e-03
                       Total CO2 (mol/kg)  =   1.492e-02
                      Temperature (deg C)  =  25.00
                  Electrical balance (eq)  =   3.269e-12
 Percent error, 100*(Cat-|An|)/(Cat+|An|)  =   0.00
                               Iterations  =   9
                                  Total H  = 1.110230e+02
                                  Total O  = 5.554599e+01

----------------------------Distribution of species----------------------------

                                            Log       Log         Log     mole V
   Species          Molality    Activity  Molality  Activity     Gamma   cm3/mol

   H+              3.463e-07   3.131e-07    -6.460    -6.504    -0.044      0.00
   OH-             3.602e-08   3.196e-08    -7.444    -7.495    -0.052     -3.08
   H2O             5.551e+01   9.997e-01     1.744    -0.000     0.000     18.07
C(-4)         2.207e-25
   CH4             2.207e-25   2.213e-25   -24.656   -24.655     0.001     33.09
C(4)          1.492e-02
   HCO3-           8.967e-03   8.014e-03    -2.047    -2.096    -0.049     24.37
   CO2             5.626e-03   5.644e-03    -2.250    -2.248     0.001     24.56
   CaHCO3+         3.157e-04   2.822e-04    -3.501    -3.549    -0.049     30.06
   CaCO3           5.548e-06   5.565e-06    -5.256    -5.255     0.001     40.00
   CO3-2           1.881e-06   1.200e-06    -5.726    -5.921    -0.195     -3.55
Ca            4.648e-03
   Ca+2            4.327e-03   2.760e-03    -2.364    -2.559    -0.195    -17.48
   CaHCO3+         3.157e-04   2.822e-04    -3.501    -3.549    -0.049     30.06
   CaCO3           5.548e-06   5.565e-06    -5.256    -5.255     0.001     40.00
   CaOH+           1.643e-09   1.462e-09    -8.784    -8.835    -0.051     (0)  
H(0)          2.821e-15
   H2              1.411e-15   1.415e-15   -14.851   -14.849     0.001     20.00
O(0)          0.000e+00
   O2              0.000e+00   0.000e+00   -62.683   -62.682     0.001     35.00

------------------------------Saturation indices-------------------------------

	Phase               SI   log IAP   log K(298 K,   1 atm)

	Aragonite        -0.14     -8.48   -8.34  CaCO3
	Calcite           0.00     -8.48   -8.48  CaCO3
	CH4(g)          -21.81    -24.65   -2.84  CH4
	CO2(g)           -0.78     -2.25   -1.47  CO2
	H2(g)           -11.75    -14.85   -3.10  H2
	H2O(g)           -1.50     -0.00    1.50  H2O
	O2(g)           -59.79    -62.68   -2.89  O2


------------------
End of simulation.
------------------

------------------------------------
Reading input data for simulation 2.
------------------------------------

	GAS_PHASE 1
	     fixed_pressure
	     CO2(g) 100
		 pressure 1000
	USE solution 1
	 USE equilibrium_phases 1
	END
-----------------------------------------
Beginning of batch-reaction calculations.
-----------------------------------------

Reaction step 1.

Using solution 1.	
Using pure phase assemblage 1.	
Using gas phase 1.	

-----------------------------------Gas phase-----------------------------------

Total pressure: 100.00      atmospheres          (Peng-Robinson calculation)
    Gas volume:   9.20e-01 liters
  Molar volume:   5.62e-02 liters/mole
   P * Vm / RT:  0.22952  (Compressibility Factor Z) 

                                                        Moles in gas
                                            ----------------------------------
Component         log P           P    phi     Initial       Final       Delta

CO2(g)             2.00   1.000e+02  0.464   1.781e+01   1.638e+01  -1.427e+00

-------------------------------Phase assemblage--------------------------------

                                                      Moles in assemblage
Phase               SI  log IAP  log K(T, P)   Initial       Final       Delta

Calcite          -0.00    -8.38     -8.38    1.000e+01   9.958e+00  -4.182e-02

-----------------------------Solution composition------------------------------

	Elements           Molality       Moles

	C                 1.481e+00   1.480e+00
	Ca                4.717e-02   4.714e-02

----------------------------Description of solution----------------------------

                                       pH  =   4.981      Charge balance
                                       pe  =  11.850      Adjusted to redox equilibrium
       Specific Conductance (uS/cm, 25 oC) = 6266
                          Density (g/cm3)  =   1.00771
                        Activity of water  =   0.974
                           Ionic strength  =   1.167e-01
                       Mass of water (kg)  =   9.992e-01
                 Total alkalinity (eq/kg)  =   9.435e-02
                       Total CO2 (mol/kg)  =   1.481e+00
                      Temperature (deg C)  =  25.00
                           Pressure (atm)  = 100.00
                  Electrical balance (eq)  =   6.499e-10
 Percent error, 100*(Cat-|An|)/(Cat+|An|)  =   0.00
                               Iterations  =  27
                                  Total H  = 1.110230e+02
                                  Total O  = 5.851889e+01

----------------------------Distribution of species----------------------------

                                            Log       Log         Log     mole V
   Species          Molality    Activity  Molality  Activity     Gamma   cm3/mol

   H+              1.274e-05   1.044e-05    -4.895    -4.981    -0.087      0.00
   OH-             1.356e-09   1.017e-09    -8.868    -8.993    -0.125     -2.98
   H2O             5.551e+01   9.742e-01     1.744    -0.011     0.000     17.99
C(-4)         0.000e+00
   CH4             0.000e+00   0.000e+00  -110.170  -110.159     0.012     33.09
C(4)          1.481e+00
   CO2             1.387e+00   1.425e+00     0.142     0.154     0.012     25.45
   HCO3-           8.194e-02   6.385e-02    -1.087    -1.195    -0.108     24.47
   CaHCO3+         1.241e-02   9.669e-03    -1.906    -2.015    -0.108     30.16
   CaCO3           5.350e-06   5.495e-06    -5.272    -5.260     0.012     40.00
   CO3-2           8.700e-07   3.207e-07    -6.060    -6.494    -0.433     -3.14
Ca            4.717e-02
   Ca+2            3.476e-02   1.301e-02    -1.459    -1.886    -0.427    -17.07
   CaHCO3+         1.241e-02   9.669e-03    -1.906    -2.015    -0.108     30.16
   CaCO3           5.350e-06   5.495e-06    -5.272    -5.260     0.012     40.00
   CaOH+           2.608e-10   2.016e-10    -9.584    -9.696    -0.112     (0)  
H(0)          2.767e-37
   H2              1.384e-37   1.421e-37   -36.859   -36.847     0.012     20.00
O(0)          3.256e-19
   O2              1.628e-19   1.673e-19   -18.788   -18.777     0.012     35.00

------------------------------Saturation indices-------------------------------

	Phase               SI   log IAP   log K(298 K, 100 atm)

	Aragonite        -0.14     -8.38   -8.24  CaCO3
	Calcite           0.00     -8.38   -8.38  CaCO3
	CH4(g)         -107.42   -110.16   -2.74  CH4
	CO2(g)            1.58      0.15   -1.43  CO2	 Pressure 100.0 atm, phi 0.464.
	H2(g)           -33.75    -36.85   -3.10  H2
	H2O(g)           -1.48     -0.01    1.47  H2O
	O2(g)           -15.82    -18.78   -2.96  O2


------------------
End of simulation.
------------------

------------------------------------
Reading input data for simulation 3.
------------------------------------

-----------
End of run.
-----------

