   Input file: fix_P
  Output file: fix_P.out
Database file: ../database/phreeqc.dat

------------------
Reading data base.
------------------

	SOLUTION_MASTER_SPECIES
	SOLUTION_SPECIES
	PHASES
	EXCHANGE_MASTER_SPECIES
	EXCHANGE_SPECIES
	SURFACE_MASTER_SPECIES
	SURFACE_SPECIES
	RATES
	END
------------------------------------
Reading input data for simulation 1.
------------------------------------

	DATABASE ../database/phreeqc.dat
	GAS_PHASE 1
	     fixed_pressure
	     volume 0.1
	     CO2(g) 1 # dissolves completely, solution pressure must be reset to initial
		 pressure 1000
	SOLUTION 1
	 pH 7 charge
	 Ca 1 Calcite
	 C(4) 1 CO2(g) -1
	 pressure 1000
	EQUILIBRIUM_PHASES 1
	 Calcite
	END
-------------------------------------------
Beginning of initial solution calculations.
-------------------------------------------

Initial solution 1.	

-----------------------------Solution composition------------------------------

	Elements           Molality       Moles

	C(4)              1.054e-02   1.054e-02  Equilibrium with CO2(g)
	Ca                4.829e-03   4.829e-03  Equilibrium with Calcite

----------------------------Description of solution----------------------------

                                       pH  =   6.904      Charge balance
                                       pe  =   4.000    
       Specific Conductance (uS/cm, 25 oC) = 836
                          Density (g/cm3)  =   1.03912
                        Activity of water  =   1.000
                           Ionic strength  =   1.369e-02
                       Mass of water (kg)  =   1.000e+00
                 Total alkalinity (eq/kg)  =   9.659e-03
                       Total CO2 (mol/kg)  =   1.054e-02
                      Temperature (deg C)  =  25.00
                           Pressure (atm)  = 1000.00
                  Electrical balance (eq)  =  -8.198e-11
 Percent error, 100*(Cat-|An|)/(Cat+|An|)  =  -0.00
                               Iterations  =   7
                                  Total H  = 1.110220e+02
                                  Total O  = 5.553691e+01

----------------------------Distribution of species----------------------------

                                               Log       Log       Log    mole V
   Species          Molality    Activity  Molality  Activity     Gamma   cm3/mol

   OH-             1.921e-07   1.711e-07    -6.716    -6.767    -0.050     -1.18
   H+              1.376e-07   1.248e-07    -6.861    -6.904    -0.042      0.00
   H2O             5.551e+01   9.997e-01     1.744    -0.000     0.000     17.35
C(4)          1.054e-02
   HCO3-           9.207e-03   8.258e-03    -2.036    -2.083    -0.047     27.19
   CO2             9.353e-04   9.383e-04    -3.029    -3.028     0.001     31.99
   CaHCO3+         3.512e-04   3.150e-04    -3.454    -3.502    -0.047     11.67
   CaCO3           3.656e-05   3.667e-05    -4.437    -4.436     0.001     -9.28
   CO3-2           1.345e-05   8.703e-06    -4.871    -5.060    -0.189      1.94
Ca            4.829e-03
   Ca+2            4.442e-03   2.873e-03    -2.352    -2.542    -0.189    -14.55
   CaHCO3+         3.512e-04   3.150e-04    -3.454    -3.502    -0.047     11.67
   CaCO3           3.656e-05   3.667e-05    -4.437    -4.436     0.001     -9.28
   CaOH+           4.278e-09   3.821e-09    -8.369    -8.418    -0.049     (0)  
H(0)          6.932e-26
   H2              3.466e-26   3.477e-26   -25.460   -25.459     0.001     28.25
O(0)          0.000e+00
   O2              0.000e+00   0.000e+00   -42.370   -42.369     0.001     29.29

------------------------------Saturation indices-------------------------------

	Phase               SI   log IAP   log K(298 K, 1000 atm)

	Aragonite        -0.09     -7.60   -7.51  CaCO3
	Calcite           0.00     -7.60   -7.60  CaCO3
	CO2(g)           -1.84     -3.03   -1.19  CO2	 Pressure   0.1 atm, phi 0.999.
	H2(g)           -22.36    -25.46   -3.10  H2
	H2O(g)           -1.20     -0.00    1.20  H2O
	O2(g)           -38.86    -42.37   -3.51  O2


-----------------------------------------
Beginning of batch-reaction calculations.
-----------------------------------------

Reaction step 1.

Using solution 1.	
Using pure phase assemblage 1.	
Using gas phase 1.	

----------------Fixed-pressure gas phase 1 dissolved completely----------------

-------------------------------Phase assemblage--------------------------------

                                                      Moles in assemblage
Phase               SI  log IAP  log K(T, P)   Initial       Final       Delta

Calcite           0.00    -8.48     -8.48    1.000e+01   1.000e+01   2.873e-04

-----------------------------Solution composition------------------------------

	Elements           Molality       Moles

	C                 1.437e-02   1.437e-02
	Ca                4.542e-03   4.542e-03

----------------------------Description of solution----------------------------

                                       pH  =   6.522      Charge balance
                                       pe  =  -0.941      Adjusted to redox equilibrium
       Specific Conductance (uS/cm, 25 oC) = 791
                          Density (g/cm3)  =   0.99771
                        Activity of water  =   1.000
                           Ionic strength  =   1.301e-02
                       Mass of water (kg)  =   1.000e+00
                 Total alkalinity (eq/kg)  =   9.084e-03
                       Total CO2 (mol/kg)  =   1.437e-02
                      Temperature (deg C)  =  25.00
                  Electrical balance (eq)  =  -8.197e-11
 Percent error, 100*(Cat-|An|)/(Cat+|An|)  =  -0.00
                               Iterations  =  10
                                  Total H  = 1.110220e+02
                                  Total O  = 5.554427e+01

----------------------------Distribution of species----------------------------

                                               Log       Log       Log    mole V
   Species          Molality    Activity  Molality  Activity     Gamma   cm3/mol

   H+              3.325e-07   3.008e-07    -6.478    -6.522    -0.043      0.00
   OH-             3.749e-08   3.331e-08    -7.426    -7.477    -0.051     -3.98
   H2O             5.551e+01   9.997e-01     1.744    -0.000     0.000     18.07
C(-4)         2.949e-23
   CH4             2.949e-23   2.958e-23   -22.530   -22.529     0.001     32.22
C(4)          1.437e-02
   HCO3-           8.766e-03   7.842e-03    -2.057    -2.106    -0.048     24.69
   CO2             5.290e-03   5.306e-03    -2.277    -2.275     0.001     30.26
   CaHCO3+         3.030e-04   2.711e-04    -3.519    -3.567    -0.048      9.75
   CaCO3           5.548e-06   5.565e-06    -5.256    -5.255     0.001    -14.60
   CO3-2           1.909e-06   1.223e-06    -5.719    -5.913    -0.194     -3.67
Ca            4.542e-03
   Ca+2            4.233e-03   2.709e-03    -2.373    -2.567    -0.194    -17.97
   CaHCO3+         3.030e-04   2.711e-04    -3.519    -3.567    -0.048      9.75
   CaCO3           5.548e-06   5.565e-06    -5.256    -5.255     0.001    -14.60
   CaOH+           1.678e-09   1.494e-09    -8.775    -8.826    -0.050     (0)  
H(0)          9.742e-15
   H2              4.871e-15   4.885e-15   -14.312   -14.311     0.001     28.61
O(0)          0.000e+00
   O2              0.000e+00   0.000e+00   -63.759   -63.758     0.001     30.40

------------------------------Saturation indices-------------------------------

	Phase               SI   log IAP   log K(298 K,   1 atm)

	Aragonite        -0.14     -8.48   -8.34  CaCO3
	Calcite           0.00     -8.48   -8.48  CaCO3
	CH4(g)          -19.69    -22.53   -2.84  CH4
	CO2(g)           -0.82     -2.28   -1.46  CO2
	H2(g)           -11.21    -14.31   -3.10  H2
	H2O(g)           -1.50     -0.00    1.50  H2O
	O2(g)           -60.87    -63.76   -2.89  O2


------------------
End of simulation.
------------------

------------------------------------
Reading input data for simulation 2.
------------------------------------

	GAS_PHASE 1
	     fixed_pressure
	     CO2(g) 100
		 pressure 1000
	USE solution 1
	 USE equilibrium_phases 1
	END
-----------------------------------------
Beginning of batch-reaction calculations.
-----------------------------------------

Reaction step 1.

Using solution 1.	
Using pure phase assemblage 1.	
Using gas phase 1.	

-----------------------------------Gas phase-----------------------------------

Total pressure: 100.00      atmospheres          (Peng-Robinson calculation)
    Gas volume:   9.20e-01 liters
  Molar volume:   5.62e-02 liters/mole
   P * Vm / RT:  0.22952  (Compressibility Factor Z) 

                                                        Moles in gas
                                            ----------------------------------
Component         log P           P    phi     Initial       Final       Delta

CO2(g)             2.00   1.000e+02  0.464   1.781e+01   1.638e+01  -1.424e+00

-------------------------------Phase assemblage--------------------------------

                                                      Moles in assemblage
Phase               SI  log IAP  log K(T, P)   Initial       Final       Delta

Calcite          -0.00    -8.38     -8.38    1.000e+01   9.957e+00  -4.315e-02

-----------------------------Solution composition------------------------------

	Elements           Molality       Moles

	C                 1.479e+00   1.478e+00
	Ca                4.802e-02   4.798e-02

----------------------------Description of solution----------------------------

                                       pH  =   4.979      Charge balance
                                       pe  =   0.253      Adjusted to redox equilibrium
       Specific Conductance (uS/cm, 25 oC) = 6307
                          Density (g/cm3)  =   1.02526
                        Activity of water  =   0.974
                           Ionic strength  =   1.170e-01
                       Mass of water (kg)  =   9.992e-01
                 Total alkalinity (eq/kg)  =   9.604e-02
                       Total CO2 (mol/kg)  =   1.479e+00
                      Temperature (deg C)  =  25.00
                           Pressure (atm)  = 100.00
                  Electrical balance (eq)  =  -2.145e-10
 Percent error, 100*(Cat-|An|)/(Cat+|An|)  =  -0.00
                               Iterations  =  19
                                  Total H  = 1.110220e+02
                                  Total O  = 5.851526e+01

----------------------------Distribution of species----------------------------

                                               Log       Log       Log    mole V
   Species          Molality    Activity  Molality  Activity     Gamma   cm3/mol

   H+              1.282e-05   1.051e-05    -4.892    -4.979    -0.086      0.00
   OH-             1.349e-09   1.013e-09    -8.870    -8.995    -0.125     -3.26
   H2O             5.551e+01   9.743e-01     1.744    -0.011     0.000     17.99
C(-4)         4.316e-18
   CH4             4.316e-18   4.433e-18   -17.365   -17.353     0.012     32.22
C(4)          1.479e+00
   CO2             1.383e+00   1.421e+00     0.141     0.153     0.012     30.49
   HCO3-           8.250e-02   6.433e-02    -1.084    -1.192    -0.108     25.44
   CaHCO3+         1.353e-02   1.055e-02    -1.869    -1.977    -0.108     10.21
   CaCO3           6.653e-06   6.835e-06    -5.177    -5.165     0.012    -13.89
   CO3-2           8.684e-07   3.210e-07    -6.061    -6.494    -0.432     -2.10
Ca            4.802e-02
   Ca+2            3.448e-02   1.295e-02    -1.462    -1.888    -0.425    -17.08
   CaHCO3+         1.353e-02   1.055e-02    -1.869    -1.977    -0.108     10.21
   CaCO3           6.653e-06   6.835e-06    -5.177    -5.165     0.012    -13.89
   CaOH+           2.576e-10   1.993e-10    -9.589    -9.701    -0.112     (0)  
H(0)          4.227e-14
   H2              2.113e-14   2.171e-14   -13.675   -13.663     0.012     28.56
O(0)          0.000e+00
   O2              0.000e+00   0.000e+00   -65.178   -65.166     0.012     30.26

------------------------------Saturation indices-------------------------------

	Phase               SI   log IAP   log K(298 K, 100 atm)

	Aragonite        -0.14     -8.38   -8.24  CaCO3
	Calcite           0.00     -8.38   -8.38  CaCO3
	CH4(g)          -14.61    -17.35   -2.74  CH4
	CO2(g)            1.58      0.15   -1.42  CO2	 Pressure 100.0 atm, phi 0.464.
	H2(g)           -10.56    -13.66   -3.10  H2
	H2O(g)           -1.48     -0.01    1.47  H2O
	O2(g)           -62.21    -65.17   -2.96  O2


------------------
End of simulation.
------------------

------------------------------------
Reading input data for simulation 3.
------------------------------------

-----------
End of run.
-----------

