WARNING: Database file from DATABASE keyword is used; command line argument ignored.
   Input file: fix_P
  Output file: fix_P.out
Database file: ../database/phreeqc.dat

------------------
Reading data base.
------------------

	SOLUTION_MASTER_SPECIES
	SOLUTION_SPECIES
	PHASES
	EXCHANGE_MASTER_SPECIES
	EXCHANGE_SPECIES
	SURFACE_MASTER_SPECIES
	SURFACE_SPECIES
	RATES
	END
------------------------------------
Reading input data for simulation 1.
------------------------------------

	DATABASE ../database/phreeqc.dat
	GAS_PHASE 1
	     fixed_pressure
	     volume 0.1
	     CO2(g) 1 # dissolves completely, solution pressure must be reset to initial
		 pressure 1000
	SOLUTION 1
	 pH 7 charge
	 Ca 1 Calcite
	 C(4) 1 CO2(g) -1
	 pressure 1000
	EQUILIBRIUM_PHASES 1
	 Calcite
	END
-------------------------------------------
Beginning of initial solution calculations.
-------------------------------------------

Initial solution 1.	

-----------------------------Solution composition------------------------------

	Elements           Molality       Moles

	C(4)              1.070e-02   1.070e-02  Equilibrium with CO2(g)
	Ca                4.914e-03   4.914e-03  Equilibrium with Calcite

----------------------------Description of solution----------------------------

                                       pH  =   6.883      Charge balance
                                       pe  =   4.000    
       Specific Conductance (uS/cm, 25 oC) = 849
                          Density (g/cm3)  =   1.03913
                               Volume (L)  =   0.96365
                        Activity of water  =   1.000
                           Ionic strength  =   1.391e-02
                       Mass of water (kg)  =   1.000e+00
                 Total alkalinity (eq/kg)  =   9.828e-03
                       Total CO2 (mol/kg)  =   1.070e-02
                      Temperature (deg C)  =  25.00
                           Pressure (atm)  = 1000.00
                  Electrical balance (eq)  =   5.265e-16
 Percent error, 100*(Cat-|An|)/(Cat+|An|)  =   0.00
                               Iterations  =   8
                                  Total H  = 1.110222e+02
                                  Total O  = 5.553740e+01

----------------------------Distribution of species----------------------------

                                               Log       Log       Log    mole V
   Species          Molality    Activity  Molality  Activity     Gamma   cm3/mol

   OH-             1.853e-07   1.649e-07    -6.732    -6.783    -0.051     -1.20
   H+              1.443e-07   1.308e-07    -6.841    -6.883    -0.043      0.00
   H2O             5.551e+01   9.997e-01     1.744    -0.000     0.000     17.35
C(4)          1.070e-02
   HCO3-           9.362e-03   8.391e-03    -2.029    -2.076    -0.048     25.57
   CO2             9.240e-04   9.270e-04    -3.034    -3.033     0.001     32.22
   CaHCO3+         3.680e-04   3.305e-04    -3.434    -3.481    -0.047     11.66
   CaCO3           3.655e-05   3.667e-05    -4.437    -4.436     0.001     -9.28
   CO3-2           1.214e-05   7.834e-06    -4.916    -5.106    -0.190      2.13
Ca            4.914e-03
   Ca+2            4.509e-03   2.909e-03    -2.346    -2.536    -0.190    -12.45
   CaHCO3+         3.680e-04   3.305e-04    -3.434    -3.481    -0.047     11.66
   CaCO3           3.655e-05   3.667e-05    -4.437    -4.436     0.001     -9.28
   CaOH+           4.133e-09   3.688e-09    -8.384    -8.433    -0.049     (0)  
H(0)          7.622e-26
   H2              3.811e-26   3.823e-26   -25.419   -25.418     0.001     28.25
O(0)          0.000e+00
   O2              0.000e+00   0.000e+00   -42.453   -42.451     0.001     29.29

------------------------------Saturation indices-------------------------------

  Phase               SI** log IAP   log K(298 K, 1000 atm)

  Aragonite        -0.09     -7.64   -7.55  CaCO3
  Calcite           0.00     -7.64   -7.64  CaCO3
  CO2(g)           -1.00     -3.03   -2.03  CO2	 Pressure   0.1 atm, phi 0.999
  H2(g)           -21.82    -25.42   -3.60  H2
  H2O(g)           -1.20     -0.00    1.20  H2O
  O2(g)           -39.04    -42.45   -3.41  O2

**For a gas, SI = log10(fugacity). Fugacity = pressure * phi / 1 atm.
  For ideal gases, phi = 1.

-----------------------------------------
Beginning of batch-reaction calculations.
-----------------------------------------

Reaction step 1.

Using solution 1.	
Using pure phase assemblage 1.	
Using gas phase 1.	

----------------Fixed-pressure gas phase 1 dissolved completely----------------

-------------------------------Phase assemblage--------------------------------

                                                      Moles in assemblage
Phase               SI  log IAP  log K(T, P)   Initial       Final       Delta

Calcite           0.00    -7.64     -7.64    1.000e+01   9.998e+00  -2.406e-03

-----------------------------Solution composition------------------------------

	Elements           Molality       Moles

	C                 1.722e-02   1.722e-02
	Ca                7.320e-03   7.319e-03

----------------------------Description of solution----------------------------

                                       pH  =   6.591      Charge balance
                                       pe  =  -1.272      Adjusted to redox equilibrium
       Specific Conductance (uS/cm, 25 oC) = 1221
                          Density (g/cm3)  =   1.03946
                               Volume (L)  =   0.96406
                        Activity of water  =   1.000
                           Ionic strength  =   2.039e-02
                       Mass of water (kg)  =   1.000e+00
                 Total alkalinity (eq/kg)  =   1.464e-02
                       Total CO2 (mol/kg)  =   1.722e-02
                      Temperature (deg C)  =  25.00
                           Pressure (atm)  = 1000.00
                  Electrical balance (eq)  =  -8.739e-15
 Percent error, 100*(Cat-|An|)/(Cat+|An|)  =  -0.00
                               Iterations  =  10
                                  Total H  = 1.110222e+02
                                  Total O  = 5.555284e+01

----------------------------Distribution of species----------------------------

                                               Log       Log       Log    mole V
   Species          Molality    Activity  Molality  Activity     Gamma   cm3/mol

   H+              2.873e-07   2.567e-07    -6.542    -6.591    -0.049      0.00
   OH-             9.636e-08   8.396e-08    -7.016    -7.076    -0.060     -1.17
   H2O             5.551e+01   9.996e-01     1.744    -0.000     0.000     17.35
C(-4)         4.447e-22
   CH4             4.447e-22   4.468e-22   -21.352   -21.350     0.002     32.22
C(4)          1.722e-02
   HCO3-           1.381e-02   1.215e-02    -1.860    -1.915    -0.056     25.61
   CO2             2.626e-03   2.638e-03    -2.581    -2.579     0.002     32.22
   CaHCO3+         7.345e-04   6.481e-04    -3.134    -3.188    -0.054     11.67
   CaCO3           3.650e-05   3.667e-05    -4.438    -4.436     0.002     -9.28
   CO3-2           9.631e-06   5.773e-06    -5.016    -5.239    -0.222      2.21
Ca            7.320e-03
   Ca+2            6.549e-03   3.925e-03    -2.184    -2.406    -0.222    -12.40
   CaHCO3+         7.345e-04   6.481e-04    -3.134    -3.188    -0.054     11.67
   CaCO3           3.650e-05   3.667e-05    -4.438    -4.436     0.002     -9.28
   CaOH+           2.899e-09   2.537e-09    -8.538    -8.596    -0.058     (0)  
H(0)          1.026e-14
   H2              5.132e-15   5.156e-15   -14.290   -14.288     0.002     28.25
O(0)          0.000e+00
   O2              0.000e+00   0.000e+00   -64.713   -64.711     0.002     29.29

------------------------------Saturation indices-------------------------------

  Phase               SI** log IAP   log K(298 K, 1000 atm)

  Aragonite        -0.09     -7.64   -7.55  CaCO3
  Calcite           0.00     -7.64   -7.64  CaCO3
  CH4(g)          -17.94    -21.35   -3.41  CH4
  CO2(g)           -0.55     -2.58   -2.03  CO2
  H2(g)           -10.69    -14.29   -3.60  H2
  H2O(g)           -1.20     -0.00    1.20  H2O
  O2(g)           -61.30    -64.71   -3.41  O2

**For a gas, SI = log10(fugacity). Fugacity = pressure * phi / 1 atm.
  For ideal gases, phi = 1.

------------------
End of simulation.
------------------

------------------------------------
Reading input data for simulation 2.
------------------------------------

	GAS_PHASE 1
	     fixed_pressure
	     CO2(g) 100
		 pressure 1000
	USE solution 1
	 USE equilibrium_phases 1
	END
-----------------------------------------
Beginning of batch-reaction calculations.
-----------------------------------------

Reaction step 1.

Using solution 1.	
Using pure phase assemblage 1.	
Using gas phase 1.	

-----------------------------------Gas phase-----------------------------------

Total pressure: 1000.00      atmospheres          (Peng-Robinson calculation)
    Gas volume:   5.74e-01 liters
  Molar volume:   3.62e-02 liters/mole
   P * Vm / RT:  1.47856  (Compressibility Factor Z) 

                                                        Moles in gas
                                            ----------------------------------
Component         log P           P    phi     Initial       Final       Delta

CO2(g)             3.00   1.000e+03  0.211   1.782e+01   1.587e+01  -1.953e+00

-------------------------------Phase assemblage--------------------------------

                                                      Moles in assemblage
Phase               SI  log IAP  log K(T, P)   Initial       Final       Delta

Calcite          -0.00    -7.68     -7.68    1.000e+01   9.888e+00  -1.124e-01

-----------------------------Solution composition------------------------------

	Elements           Molality       Moles

	C                 2.080e+00   2.076e+00
	Ca                1.176e-01   1.173e-01

----------------------------Description of solution----------------------------

                                       pH  =   4.798      Charge balance
                                       pe  =   0.478      Adjusted to redox equilibrium
       Specific Conductance (uS/cm, 25 oC) = 13203
                          Density (g/cm3)  =   1.07130
                               Volume (L)  =   1.11990
                        Activity of water  =   0.964
                           Ionic strength  =   2.464e-01
                       Mass of water (kg)  =   9.980e-01
                 Total alkalinity (eq/kg)  =   2.351e-01
                       Total CO2 (mol/kg)  =   2.080e+00
                      Temperature (deg C)  =  25.00
                           Pressure (atm)  = 1000.00
                  Electrical balance (eq)  =  -4.107e-12
 Percent error, 100*(Cat-|An|)/(Cat+|An|)  =  -0.00
                               Iterations  =  23
                                  Total H  = 1.110222e+02
                                  Total O  = 5.977983e+01

----------------------------Distribution of species----------------------------

                                               Log       Log       Log    mole V
   Species          Molality    Activity  Molality  Activity     Gamma   cm3/mol

   H+              1.997e-05   1.593e-05    -4.700    -4.798    -0.098      0.00
   OH-             1.821e-09   1.277e-09    -8.740    -8.894    -0.154     -0.66
   H2O             5.551e+01   9.635e-01     1.744    -0.016     0.000     17.35
C(-4)         7.308e-19
   CH4             7.308e-19   7.735e-19   -18.136   -18.112     0.025     32.22
C(4)          2.080e+00
   CO2             1.845e+00   1.953e+00     0.266     0.291     0.025     32.22
   HCO3-           1.820e-01   1.353e-01    -0.740    -0.869    -0.129     26.40
   CaHCO3+         5.307e-02   4.004e-02    -1.275    -1.398    -0.122     11.78
   CaCO3           3.465e-05   3.667e-05    -4.460    -4.436     0.025     -9.28
   CO3-2           3.337e-06   1.019e-06    -5.477    -5.992    -0.515      3.39
Ca            1.176e-01
   Ca+2            6.445e-02   2.071e-02    -1.191    -1.684    -0.493    -11.84
   CaHCO3+         5.307e-02   4.004e-02    -1.275    -1.398    -0.122     11.78
   CaCO3           3.465e-05   3.667e-05    -4.460    -4.436     0.025     -9.28
   CaOH+           2.777e-10   2.079e-10    -9.556    -9.682    -0.126     (0)  
H(0)          1.183e-14
   H2              5.915e-15   6.260e-15   -14.228   -14.203     0.025     28.25
O(0)          0.000e+00
   O2              0.000e+00   0.000e+00   -64.936   -64.912     0.025     29.29

------------------------------Saturation indices-------------------------------

  Phase               SI** log IAP   log K(298 K, 1000 atm)

  Aragonite        -0.09     -7.68   -7.58  CaCO3
  Calcite          -0.00     -7.68   -7.68  CaCO3
  CH4(g)          -14.70    -18.11   -3.41  CH4
  CO2(g)            2.32      0.29   -2.03  CO2	 Pressure 1000.0 atm, phi 0.211
  H2(g)           -10.60    -14.20   -3.60  H2
  H2O(g)           -1.21     -0.02    1.20  H2O
  O2(g)           -61.50    -64.91   -3.41  O2

**For a gas, SI = log10(fugacity). Fugacity = pressure * phi / 1 atm.
  For ideal gases, phi = 1.

------------------
End of simulation.
------------------

------------------------------------
Reading input data for simulation 3.
------------------------------------

------------------------------
End of Run after 0.02 Seconds.
------------------------------

