WARNING: Database file from DATABASE keyword is used; command line argument ignored.
   Input file: gas
  Output file: gas.out
Database file: ../database/phreeqc.dat

------------------
Reading data base.
------------------

	SOLUTION_MASTER_SPECIES
	SOLUTION_SPECIES
	PHASES
	EXCHANGE_MASTER_SPECIES
	EXCHANGE_SPECIES
	SURFACE_MASTER_SPECIES
	SURFACE_SPECIES
	RATES
	END
------------------------------------
Reading input data for simulation 1.
------------------------------------

	DATABASE ../database/phreeqc.dat
	SELECTED_OUTPUT 101
	    file                 gas_101.sel
	USER_PUNCH 101
	    headings Mu SC
	    start
	10 PUNCH STR_F$(MU, 20, 12)
	20 PUNCH STR_F$(SC, 20, 10)
	    end
	knobs
		logfile
	PRINT
		status false
	SELECTED_OUTPUT
		file 	gas.flat
		totals
			C C(4) C(-4) N N(5) N(3) N(0) N(-3)
		si	
			CO2(g) CH4(g) O2(g) N2(g)
		gases	CO2(g) CH4(g) O2(g) N2(g)
	SOLUTION 1
		units mmol/L
		pH	4.0
		temp 	25.
		C(4)	1.0	CO2(g)	-3.5
		N(5)	3.0
	REACTION 1
		CH2O	1.0
		0.0 1.0 2.0 3.0 4.0 10.0 100. 300. mmol
	PURE_PHASES 1
		Calcite
		Dolomite
	GAS_PHASE 1
		pressure	 	1.0
		volume		1.0
		temp		25.0
		CH4(g)          0.000001
		CO2(g)		0.000316
		O2(g)		0.2
		N2(g)		0.78
	END
-------------------------------------------
Beginning of initial solution calculations.
-------------------------------------------

Initial solution 1.	

-----------------------------Solution composition------------------------------

	Elements           Molality       Moles

	C(4)              1.081e-05   1.081e-05  Equilibrium with CO2(g)
	N(5)              3.000e-03   3.000e-03

----------------------------Description of solution----------------------------

                                       pH  =   4.000    
                                       pe  =   4.000    
      Specific Conductance (µS/cm,  25°C)  = 244
                          Density (g/cm³)  =   0.99714
                               Volume (L)  =   1.00305
                        Activity of water  =   1.000
                 Ionic strength (mol/kgw)  =   1.552e-03
                       Mass of water (kg)  =   1.000e+00
                 Total alkalinity (eq/kg)  =  -1.042e-04
                       Total CO2 (mol/kg)  =   1.081e-05
                         Temperature (°C)  =  25.00
                  Electrical balance (eq)  =  -2.896e-03
 Percent error, 100*(Cat-|An|)/(Cat+|An|)  = -93.29
                               Iterations  =   3
                                  Total H  = 1.110125e+02
                                  Total O  = 5.551524e+01

----------------------------Distribution of species----------------------------

                                               Log       Log       Log    mole V
   Species          Molality    Activity  Molality  Activity     Gamma   cm³/mol

   H+              1.042e-04   1.000e-04    -3.982    -4.000    -0.018      0.00
   OH-             1.058e-10   1.012e-10    -9.976    -9.995    -0.019     -4.10
   H2O             5.551e+01   9.999e-01     1.744    -0.000     0.000     18.07
C(4)          1.081e-05
   CO2             1.076e-05   1.076e-05    -4.968    -4.968     0.000     34.43
   HCO3-           4.997e-08   4.786e-08    -7.301    -7.320    -0.019     24.69
   (CO2)2          2.125e-12   2.125e-12   -11.673   -11.673     0.000     68.87
   CO3-2           2.668e-14   2.244e-14   -13.574   -13.649    -0.075     -5.24
H(0)          1.415e-19
   H2              7.077e-20   7.079e-20   -19.150   -19.150     0.000     28.61
N(5)          3.000e-03
   NO3-            3.000e-03   2.870e-03    -2.523    -2.542    -0.019     29.50
O(0)          0.000e+00
   O2              0.000e+00   0.000e+00   -54.080   -54.080     0.000     30.40

------------------------------Saturation indices-------------------------------

  Phase               SI** log IAP   log K(298 K,   1 atm)

  CO2(g)           -3.50     -4.97   -1.47  CO2	 Pressure   0.0 atm, phi 1.000
  H2(g)           -16.05    -19.15   -3.10  H2
  H2O(g)           -1.50     -0.00    1.50  H2O
  O2(g)           -51.19    -54.08   -2.89  O2	 Pressure   0.2 atm, phi 0.999

**For a gas, SI = log10(fugacity). Fugacity = pressure * phi / 1 atm.
  For ideal gases, phi = 1.

-----------------------------------------
Beginning of batch-reaction calculations.
-----------------------------------------

Reaction step 1.

Using solution 1.	
Using pure phase assemblage 1.	
Using gas phase 1.	
Using reaction 1.	

Reaction 1.	

	  0.000e+00 moles of the following reaction have been added:

	                 Relative
	Reactant            moles

	CH2O                 1.00000

	                 Relative
	Element             moles
	C                    1.00000
	H                    2.00000
	O                    1.00000

-----------------------------------Gas phase-----------------------------------

Total pressure:  1.00      atmospheres          (Peng-Robinson calculation)
    Gas volume:   6.99e-01 liters
  Molar volume:   2.45e+01 liters/mole
   P * Vm / RT:  0.99948  (Compressibility Factor Z) 

                                                        Moles in gas
                                            ----------------------------------
Component         log P           P    phi     Initial       Final       Delta

CH4(g)          -129.57  2.687e-130  0.998   4.089e-08   0.000e+00  -4.089e-08
CO2(g)            -1.68   2.080e-02  0.996   1.292e-05   5.943e-04   5.813e-04
N2(g)             -0.01   9.792e-01  1.000   3.190e-02   2.798e-02  -3.922e-03
O2(g)             -6.38   4.155e-07  0.999   8.179e-03   1.187e-08  -8.179e-03

-------------------------------Phase assemblage--------------------------------

                                                      Moles in assemblage
Phase               SI  log IAP  log K(T, P)   Initial       Final       Delta

Calcite           0.00    -8.48     -8.48    1.000e+01   9.999e+00  -8.361e-04
Dolomite          0.00   -17.09    -17.09    1.000e+01   9.998e+00  -2.275e-03

-----------------------------Solution composition------------------------------

	Elements           Molality       Moles

	C                 4.815e-03   4.815e-03
	Ca                3.111e-03   3.111e-03
	Mg                2.275e-03   2.275e-03
	N                 1.084e-02   1.084e-02

----------------------------Description of solution----------------------------

                                       pH  =   7.046      Charge balance
                                       pe  =  12.156      Adjusted to redox equilibrium
      Specific Conductance (µS/cm,  25°C)  = 1275
                          Density (g/cm³)  =   0.99779
                               Volume (L)  =   1.00325
                        Activity of water  =   1.000
                 Ionic strength (mol/kgw)  =   1.728e-02
                       Mass of water (kg)  =   1.000e+00
                 Total alkalinity (eq/kg)  =   4.124e-03
                       Total CO2 (mol/kg)  =   4.815e-03
                         Temperature (°C)  =  25.00
                  Electrical balance (eq)  =  -2.896e-03
 Percent error, 100*(Cat-|An|)/(Cat+|An|)  = -12.02
                               Iterations  =  26
                                  Total H  = 1.110125e+02
                                  Total O  = 5.554659e+01

----------------------------Distribution of species----------------------------

                                               Log       Log       Log    mole V
   Species          Molality    Activity  Molality  Activity     Gamma   cm³/mol

   OH-             1.285e-07   1.124e-07    -6.891    -6.949    -0.058     -4.00
   H+              1.006e-07   9.002e-08    -6.997    -7.046    -0.048      0.00
   H2O             5.551e+01   9.997e-01     1.744    -0.000     0.000     18.07
C(-4)         0.000e+00
   CH4             0.000e+00   0.000e+00  -132.375  -132.373     0.002     35.46
C(4)          4.815e-03
   HCO3-           3.947e-03   3.483e-03    -2.404    -2.458    -0.054     24.82
   CO2             7.023e-04   7.051e-04    -3.153    -3.152     0.002     34.43
   CaHCO3+         9.170e-05   8.112e-05    -4.038    -4.091    -0.053      9.74
   MgHCO3+         6.286e-05   5.511e-05    -4.202    -4.259    -0.057      5.55
   CaCO3           5.543e-06   5.565e-06    -5.256    -5.255     0.002    -14.60
   CO3-2           2.994e-06   1.815e-06    -5.524    -5.741    -0.217     -4.89
   MgCO3           2.332e-06   2.341e-06    -5.632    -5.631     0.002    -17.09
   (CO2)2          9.090e-09   9.127e-09    -8.041    -8.040     0.002     68.87
Ca            3.111e-03
   Ca+2            3.014e-03   1.826e-03    -2.521    -2.739    -0.218    -17.84
   CaHCO3+         9.170e-05   8.112e-05    -4.038    -4.091    -0.053      9.74
   CaCO3           5.543e-06   5.565e-06    -5.256    -5.255     0.002    -14.60
   CaOH+           3.833e-09   3.365e-09    -8.416    -8.473    -0.057     (0)  
H(0)          0.000e+00
   H2              0.000e+00   0.000e+00   -41.555   -41.553     0.002     28.61
Mg            2.275e-03
   Mg+2            2.210e-03   1.352e-03    -2.656    -2.869    -0.213    -21.53
   MgHCO3+         6.286e-05   5.511e-05    -4.202    -4.259    -0.057      5.55
   MgCO3           2.332e-06   2.341e-06    -5.632    -5.631     0.002    -17.09
   MgOH+           6.151e-08   5.452e-08    -7.211    -7.263    -0.052     (0)  
N(-3)         0.000e+00
   NH4+            0.000e+00   0.000e+00   -50.645   -50.706    -0.061     18.05
   NH3             0.000e+00   0.000e+00   -52.906   -52.904     0.002     24.42
N(0)          1.301e-03
   N2              6.505e-04   6.531e-04    -3.187    -3.185     0.002     29.29
N(3)          1.402e-12
   NO2-            1.402e-12   1.223e-12   -11.853   -11.913    -0.059     25.06
N(5)          9.544e-03
   NO3-            9.544e-03   8.325e-03    -2.020    -2.080    -0.059     29.58
O(0)          1.060e-09
   O2              5.298e-10   5.319e-10    -9.276    -9.274     0.002     30.40

------------------------------Saturation indices-------------------------------

  Phase               SI** log IAP   log K(298 K,   1 atm)

  Aragonite        -0.14     -8.48   -8.34  CaCO3
  Calcite           0.00     -8.48   -8.48  CaCO3
  CH4(g)         -129.57   -132.37   -2.80  CH4	 Pressure   0.0 atm, phi 0.998
  CO2(g)           -1.68     -3.15   -1.47  CO2	 Pressure   0.0 atm, phi 0.996
  Dolomite          0.00    -17.09  -17.09  CaMg(CO3)2
  H2(g)           -38.45    -41.55   -3.10  H2
  H2O(g)           -1.50     -0.00    1.50  H2O
  N2(g)            -0.01     -3.19   -3.18  N2	 Pressure   1.0 atm, phi 1.000
  NH3(g)          -54.70    -52.90    1.80  NH3
  O2(g)            -6.38     -9.27   -2.89  O2	 Pressure   0.0 atm, phi 0.999

**For a gas, SI = log10(fugacity). Fugacity = pressure * phi / 1 atm.
  For ideal gases, phi = 1.

Reaction step 2.

Using solution 1.	
Using pure phase assemblage 1.	
Using gas phase 1.	
Using reaction 1.	

Reaction 1.	

	  1.000e-03 moles of the following reaction have been added:

	                 Relative
	Reactant            moles

	CH2O                 1.00000

	                 Relative
	Element             moles
	C                    1.00000
	H                    2.00000
	O                    1.00000

-----------------------------------Gas phase-----------------------------------

Total pressure:  1.00      atmospheres          (Peng-Robinson calculation)
    Gas volume:   7.12e-01 liters
  Molar volume:   2.45e+01 liters/mole
   P * Vm / RT:  0.99947  (Compressibility Factor Z) 

                                                        Moles in gas
                                            ----------------------------------
Component         log P           P    phi     Initial       Final       Delta

CH4(g)          -129.49  3.273e-130  0.998   4.089e-08   0.000e+00  -4.089e-08
CO2(g)            -1.59   2.596e-02  0.996   1.292e-05   7.564e-04   7.435e-04
N2(g)             -0.01   9.740e-01  1.000   3.190e-02   2.838e-02  -3.519e-03
O2(g)             -6.38   4.206e-07  0.999   8.179e-03   1.225e-08  -8.179e-03

-------------------------------Phase assemblage--------------------------------

                                                      Moles in assemblage
Phase               SI  log IAP  log K(T, P)   Initial       Final       Delta

Calcite           0.00    -8.48     -8.48    1.000e+01   9.999e+00  -8.151e-04
Dolomite          0.00   -17.09    -17.09    1.000e+01   9.998e+00  -2.217e-03

-----------------------------Solution composition------------------------------

	Elements           Molality       Moles

	C                 5.516e-03   5.516e-03
	Ca                3.032e-03   3.032e-03
	Mg                2.217e-03   2.217e-03
	N                 1.004e-02   1.004e-02

----------------------------Description of solution----------------------------

                                       pH  =   7.003      Charge balance
                                       pe  =  12.200      Adjusted to redox equilibrium
      Specific Conductance (µS/cm,  25°C)  = 1232
                          Density (g/cm³)  =   0.99778
                               Volume (L)  =   1.00326
                        Activity of water  =   1.000
                 Ionic strength (mol/kgw)  =   1.683e-02
                       Mass of water (kg)  =   1.000e+00
                 Total alkalinity (eq/kg)  =   4.651e-03
                       Total CO2 (mol/kg)  =   5.516e-03
                         Temperature (°C)  =  25.00
                  Electrical balance (eq)  =  -2.896e-03
 Percent error, 100*(Cat-|An|)/(Cat+|An|)  = -12.31
                               Iterations  =  23
                                  Total H  = 1.110145e+02
                                  Total O  = 5.554686e+01

----------------------------Distribution of species----------------------------

                                               Log       Log       Log    mole V
   Species          Molality    Activity  Molality  Activity     Gamma   cm³/mol

   OH-             1.163e-07   1.019e-07    -6.934    -6.992    -0.058     -4.00
   H+              1.109e-07   9.934e-08    -6.955    -7.003    -0.048      0.00
   H2O             5.551e+01   9.997e-01     1.744    -0.000     0.000     18.07
C(-4)         0.000e+00
   CH4             0.000e+00   0.000e+00  -132.289  -132.288     0.002     35.46
C(4)          5.516e-03
   HCO3-           4.458e-03   3.939e-03    -2.351    -2.405    -0.054     24.81
   CO2             8.767e-04   8.801e-04    -3.057    -3.055     0.002     34.43
   CaHCO3+         1.011e-04   8.953e-05    -3.995    -4.048    -0.053      9.74
   MgHCO3+         6.927e-05   6.082e-05    -4.159    -4.216    -0.057      5.55
   CaCO3           5.543e-06   5.565e-06    -5.256    -5.255     0.002    -14.60
   CO3-2           3.052e-06   1.860e-06    -5.515    -5.731    -0.215     -4.89
   MgCO3           2.332e-06   2.341e-06    -5.632    -5.631     0.002    -17.09
   (CO2)2          1.416e-08   1.422e-08    -7.849    -7.847     0.002     68.87
Ca            3.032e-03
   Ca+2            2.925e-03   1.781e-03    -2.534    -2.749    -0.215    -17.85
   CaHCO3+         1.011e-04   8.953e-05    -3.995    -4.048    -0.053      9.74
   CaCO3           5.543e-06   5.565e-06    -5.256    -5.255     0.002    -14.60
   CaOH+           3.384e-09   2.975e-09    -8.471    -8.527    -0.056     (0)  
H(0)          0.000e+00
   H2              0.000e+00   0.000e+00   -41.557   -41.556     0.002     28.61
Mg            2.217e-03
   Mg+2            2.145e-03   1.320e-03    -2.669    -2.880    -0.211    -21.53
   MgHCO3+         6.927e-05   6.082e-05    -4.159    -4.216    -0.057      5.55
   MgCO3           2.332e-06   2.341e-06    -5.632    -5.631     0.002    -17.09
   MgOH+           5.432e-08   4.821e-08    -7.265    -7.317    -0.052     (0)  
N(-3)         0.000e+00
   NH4+            0.000e+00   0.000e+00   -50.608   -50.668    -0.060     18.04
   NH3             0.000e+00   0.000e+00   -52.911   -52.909     0.002     24.42
N(0)          1.294e-03
   N2              6.471e-04   6.496e-04    -3.189    -3.187     0.002     29.29
N(3)          1.277e-12
   NO2-            1.277e-12   1.115e-12   -11.894   -11.953    -0.059     25.06
N(5)          8.744e-03
   NO3-            8.744e-03   7.639e-03    -2.058    -2.117    -0.059     29.58
O(0)          1.073e-09
   O2              5.363e-10   5.384e-10    -9.271    -9.269     0.002     30.40

------------------------------Saturation indices-------------------------------

  Phase               SI** log IAP   log K(298 K,   1 atm)

  Aragonite        -0.14     -8.48   -8.34  CaCO3
  Calcite           0.00     -8.48   -8.48  CaCO3
  CH4(g)         -129.49   -132.29   -2.80  CH4	 Pressure   0.0 atm, phi 0.998
  CO2(g)           -1.59     -3.06   -1.47  CO2	 Pressure   0.0 atm, phi 0.996
  Dolomite          0.00    -17.09  -17.09  CaMg(CO3)2
  H2(g)           -38.45    -41.56   -3.10  H2
  H2O(g)           -1.50     -0.00    1.50  H2O
  N2(g)            -0.01     -3.19   -3.18  N2	 Pressure   1.0 atm, phi 1.000
  NH3(g)          -54.71    -52.91    1.80  NH3
  O2(g)            -6.38     -9.27   -2.89  O2	 Pressure   0.0 atm, phi 0.999

**For a gas, SI = log10(fugacity). Fugacity = pressure * phi / 1 atm.
  For ideal gases, phi = 1.

Reaction step 3.

Using solution 1.	
Using pure phase assemblage 1.	
Using gas phase 1.	
Using reaction 1.	

Reaction 1.	

	  2.000e-03 moles of the following reaction have been added:

	                 Relative
	Reactant            moles

	CH2O                 1.00000

	                 Relative
	Element             moles
	C                    1.00000
	H                    2.00000
	O                    1.00000

-----------------------------------Gas phase-----------------------------------

Total pressure:  1.00      atmospheres          (Peng-Robinson calculation)
    Gas volume:   7.26e-01 liters
  Molar volume:   2.45e+01 liters/mole
   P * Vm / RT:  0.99945  (Compressibility Factor Z) 

                                                        Moles in gas
                                            ----------------------------------
Component         log P           P    phi     Initial       Final       Delta

CH4(g)          -129.40  4.018e-130  0.998   4.089e-08   0.000e+00  -4.089e-08
CO2(g)            -1.51   3.121e-02  0.996   1.292e-05   9.274e-04   9.144e-04
N2(g)             -0.01   9.688e-01  1.000   3.190e-02   2.878e-02  -3.115e-03
O2(g)             -6.38   4.163e-07  0.999   8.179e-03   1.237e-08  -8.179e-03

-------------------------------Phase assemblage--------------------------------

                                                      Moles in assemblage
Phase               SI  log IAP  log K(T, P)   Initial       Final       Delta

Calcite           0.00    -8.48     -8.48    1.000e+01   9.999e+00  -7.921e-04
Dolomite          0.00   -17.09    -17.09    1.000e+01   9.998e+00  -2.154e-03

-----------------------------Solution composition------------------------------

	Elements           Molality       Moles

	C                 6.197e-03   6.197e-03
	Ca                2.946e-03   2.946e-03
	Mg                2.154e-03   2.154e-03
	N                 9.231e-03   9.231e-03

----------------------------Description of solution----------------------------

                                       pH  =   6.969      Charge balance
                                       pe  =  12.233      Adjusted to redox equilibrium
      Specific Conductance (µS/cm,  25°C)  = 1187
                          Density (g/cm³)  =   0.99776
                               Volume (L)  =   1.00328
                        Activity of water  =   1.000
                 Ionic strength (mol/kgw)  =   1.636e-02
                       Mass of water (kg)  =   1.000e+00
                 Total alkalinity (eq/kg)  =   5.154e-03
                       Total CO2 (mol/kg)  =   6.197e-03
                         Temperature (°C)  =  25.00
                  Electrical balance (eq)  =  -2.896e-03
 Percent error, 100*(Cat-|An|)/(Cat+|An|)  = -12.65
                               Iterations  =  23
                                  Total H  = 1.110165e+02
                                  Total O  = 5.554707e+01

----------------------------Distribution of species----------------------------

                                               Log       Log       Log    mole V
   Species          Molality    Activity  Molality  Activity     Gamma   cm³/mol

   H+              1.198e-07   1.075e-07    -6.921    -6.969    -0.047      0.00
   OH-             1.073e-07   9.415e-08    -6.969    -7.026    -0.057     -4.00
   H2O             5.551e+01   9.997e-01     1.744    -0.000     0.000     18.07
C(-4)         0.000e+00
   CH4             0.000e+00   0.000e+00  -132.200  -132.199     0.002     35.46
C(4)          6.197e-03
   HCO3-           4.948e-03   4.378e-03    -2.306    -2.359    -0.053     24.81
   CO2             1.054e-03   1.058e-03    -2.977    -2.975     0.002     34.43
   CaHCO3+         1.092e-04   9.685e-05    -3.962    -4.014    -0.052      9.74
   MgHCO3+         7.483e-05   6.580e-05    -4.126    -4.182    -0.056      5.55
   CaCO3           5.544e-06   5.565e-06    -5.256    -5.255     0.002    -14.60
   CO3-2           3.117e-06   1.910e-06    -5.506    -5.719    -0.213     -4.90
   MgCO3           2.333e-06   2.341e-06    -5.632    -5.631     0.002    -17.09
   (CO2)2          2.047e-08   2.055e-08    -7.689    -7.687     0.002     68.87
Ca            2.946e-03
   Ca+2            2.832e-03   1.734e-03    -2.548    -2.761    -0.213    -17.85
   CaHCO3+         1.092e-04   9.685e-05    -3.962    -4.014    -0.052      9.74
   CaCO3           5.544e-06   5.565e-06    -5.256    -5.255     0.002    -14.60
   CaOH+           3.041e-09   2.677e-09    -8.517    -8.572    -0.055     (0)  
H(0)          0.000e+00
   H2              0.000e+00   0.000e+00   -41.555   -41.553     0.002     28.61
Mg            2.154e-03
   Mg+2            2.077e-03   1.285e-03    -2.683    -2.891    -0.209    -21.54
   MgHCO3+         7.483e-05   6.580e-05    -4.126    -4.182    -0.056      5.55
   MgCO3           2.333e-06   2.341e-06    -5.632    -5.631     0.002    -17.09
   MgOH+           4.881e-08   4.338e-08    -7.311    -7.363    -0.051     (0)  
N(-3)         0.000e+00
   NH4+            0.000e+00   0.000e+00   -50.573   -50.632    -0.059     18.04
   NH3             0.000e+00   0.000e+00   -52.909   -52.907     0.002     24.42
N(0)          1.287e-03
   N2              6.437e-04   6.461e-04    -3.191    -3.190     0.002     29.29
N(3)          1.166e-12
   NO2-            1.166e-12   1.020e-12   -11.933   -11.991    -0.058     25.06
N(5)          7.943e-03
   NO3-            7.943e-03   6.951e-03    -2.100    -2.158    -0.058     29.58
O(0)          1.062e-09
   O2              5.309e-10   5.329e-10    -9.275    -9.273     0.002     30.40

------------------------------Saturation indices-------------------------------

  Phase               SI** log IAP   log K(298 K,   1 atm)

  Aragonite        -0.14     -8.48   -8.34  CaCO3
  Calcite           0.00     -8.48   -8.48  CaCO3
  CH4(g)         -129.40   -132.20   -2.80  CH4	 Pressure   0.0 atm, phi 0.998
  CO2(g)           -1.51     -2.98   -1.47  CO2	 Pressure   0.0 atm, phi 0.996
  Dolomite          0.00    -17.09  -17.09  CaMg(CO3)2
  H2(g)           -38.45    -41.55   -3.10  H2
  H2O(g)           -1.50     -0.00    1.50  H2O
  N2(g)            -0.01     -3.19   -3.18  N2	 Pressure   1.0 atm, phi 1.000
  NH3(g)          -54.70    -52.91    1.80  NH3
  O2(g)            -6.38     -9.27   -2.89  O2	 Pressure   0.0 atm, phi 0.999

**For a gas, SI = log10(fugacity). Fugacity = pressure * phi / 1 atm.
  For ideal gases, phi = 1.

Reaction step 4.

Using solution 1.	
Using pure phase assemblage 1.	
Using gas phase 1.	
Using reaction 1.	

Reaction 1.	

	  3.000e-03 moles of the following reaction have been added:

	                 Relative
	Reactant            moles

	CH2O                 1.00000

	                 Relative
	Element             moles
	C                    1.00000
	H                    2.00000
	O                    1.00000

-----------------------------------Gas phase-----------------------------------

Total pressure:  1.00      atmospheres          (Peng-Robinson calculation)
    Gas volume:   7.41e-01 liters
  Molar volume:   2.45e+01 liters/mole
   P * Vm / RT:  0.99943  (Compressibility Factor Z) 

                                                        Moles in gas
                                            ----------------------------------
Component         log P           P    phi     Initial       Final       Delta

CH4(g)          -129.30  4.992e-130  0.998   4.089e-08   0.000e+00  -4.089e-08
CO2(g)            -1.44   3.651e-02  0.996   1.292e-05   1.106e-03   1.093e-03
N2(g)             -0.02   9.635e-01  1.000   3.190e-02   2.919e-02  -2.712e-03
O2(g)             -6.39   4.039e-07  0.999   8.179e-03   1.223e-08  -8.179e-03

-------------------------------Phase assemblage--------------------------------

                                                      Moles in assemblage
Phase               SI  log IAP  log K(T, P)   Initial       Final       Delta

Calcite           0.00    -8.48     -8.48    1.000e+01   9.999e+00  -7.678e-04
Dolomite          0.00   -17.09    -17.09    1.000e+01   9.998e+00  -2.088e-03

-----------------------------Solution composition------------------------------

	Elements           Molality       Moles

	C                 6.861e-03   6.861e-03
	Ca                2.855e-03   2.855e-03
	Mg                2.088e-03   2.088e-03
	N                 8.424e-03   8.424e-03

----------------------------Description of solution----------------------------

                                       pH  =   6.941      Charge balance
                                       pe  =  12.257      Adjusted to redox equilibrium
      Specific Conductance (µS/cm,  25°C)  = 1140
                          Density (g/cm³)  =   0.99775
                               Volume (L)  =   1.00329
                        Activity of water  =   1.000
                 Ionic strength (mol/kgw)  =   1.587e-02
                       Mass of water (kg)  =   1.000e+00
                 Total alkalinity (eq/kg)  =   5.639e-03
                       Total CO2 (mol/kg)  =   6.861e-03
                         Temperature (°C)  =  25.00
                  Electrical balance (eq)  =  -2.896e-03
 Percent error, 100*(Cat-|An|)/(Cat+|An|)  = -13.02
                               Iterations  =  24
                                  Total H  = 1.110185e+02
                                  Total O  = 5.554724e+01

----------------------------Distribution of species----------------------------

                                               Log       Log       Log    mole V
   Species          Molality    Activity  Molality  Activity     Gamma   cm³/mol

   H+              1.276e-07   1.145e-07    -6.894    -6.941    -0.047      0.00
   OH-             1.005e-07   8.833e-08    -6.998    -7.054    -0.056     -4.00
   H2O             5.551e+01   9.997e-01     1.744    -0.000     0.000     18.07
C(-4)         0.000e+00
   CH4             0.000e+00   0.000e+00  -132.106  -132.104     0.002     35.46
C(4)          6.861e-03
   HCO3-           5.421e-03   4.804e-03    -2.266    -2.318    -0.053     24.81
   CO2             1.233e-03   1.238e-03    -2.909    -2.907     0.002     34.43
   CaHCO3+         1.162e-04   1.032e-04    -3.935    -3.986    -0.051      9.74
   MgHCO3+         7.962e-05   7.013e-05    -4.099    -4.154    -0.055      5.55
   CaCO3           5.545e-06   5.565e-06    -5.256    -5.255     0.002    -14.60
   CO3-2           3.190e-06   1.967e-06    -5.496    -5.706    -0.210     -4.91
   MgCO3           2.333e-06   2.341e-06    -5.632    -5.631     0.002    -17.09
   (CO2)2          2.801e-08   2.811e-08    -7.553    -7.551     0.002     68.87
Ca            2.855e-03
   Ca+2            2.734e-03   1.684e-03    -2.563    -2.774    -0.210    -17.86
   CaHCO3+         1.162e-04   1.032e-04    -3.935    -3.986    -0.051      9.74
   CaCO3           5.545e-06   5.565e-06    -5.256    -5.255     0.002    -14.60
   CaOH+           2.767e-09   2.440e-09    -8.558    -8.613    -0.055     (0)  
H(0)          0.000e+00
   H2              0.000e+00   0.000e+00   -41.548   -41.547     0.002     28.61
Mg            2.088e-03
   Mg+2            2.006e-03   1.248e-03    -2.698    -2.904    -0.206    -21.54
   MgHCO3+         7.962e-05   7.013e-05    -4.099    -4.154    -0.055      5.55
   MgCO3           2.333e-06   2.341e-06    -5.632    -5.631     0.002    -17.09
   MgOH+           4.442e-08   3.953e-08    -7.352    -7.403    -0.051     (0)  
N(-3)         0.000e+00
   NH4+            0.000e+00   0.000e+00   -50.537   -50.595    -0.058     18.04
   NH3             0.000e+00   0.000e+00   -52.900   -52.899     0.002     24.42
N(0)          1.280e-03
   N2              6.402e-04   6.426e-04    -3.194    -3.192     0.002     29.29
N(3)          1.065e-12
   NO2-            1.065e-12   9.333e-13   -11.973   -12.030    -0.057     25.06
N(5)          7.143e-03
   NO3-            7.143e-03   6.263e-03    -2.146    -2.203    -0.057     29.58
O(0)          1.030e-09
   O2              5.151e-10   5.170e-10    -9.288    -9.287     0.002     30.40

------------------------------Saturation indices-------------------------------

  Phase               SI** log IAP   log K(298 K,   1 atm)

  Aragonite        -0.14     -8.48   -8.34  CaCO3
  Calcite           0.00     -8.48   -8.48  CaCO3
  CH4(g)         -129.30   -132.10   -2.80  CH4	 Pressure   0.0 atm, phi 0.998
  CO2(g)           -1.44     -2.91   -1.47  CO2	 Pressure   0.0 atm, phi 0.996
  Dolomite          0.00    -17.09  -17.09  CaMg(CO3)2
  H2(g)           -38.45    -41.55   -3.10  H2
  H2O(g)           -1.50     -0.00    1.50  H2O
  N2(g)            -0.02     -3.19   -3.18  N2	 Pressure   1.0 atm, phi 1.000
  NH3(g)          -54.69    -52.90    1.80  NH3
  O2(g)            -6.39     -9.29   -2.89  O2	 Pressure   0.0 atm, phi 0.999

**For a gas, SI = log10(fugacity). Fugacity = pressure * phi / 1 atm.
  For ideal gases, phi = 1.

Reaction step 5.

Using solution 1.	
Using pure phase assemblage 1.	
Using gas phase 1.	
Using reaction 1.	

Reaction 1.	

	  4.000e-03 moles of the following reaction have been added:

	                 Relative
	Reactant            moles

	CH2O                 1.00000

	                 Relative
	Element             moles
	C                    1.00000
	H                    2.00000
	O                    1.00000

-----------------------------------Gas phase-----------------------------------

Total pressure:  1.00      atmospheres          (Peng-Robinson calculation)
    Gas volume:   7.55e-01 liters
  Molar volume:   2.45e+01 liters/mole
   P * Vm / RT:  0.99941  (Compressibility Factor Z) 

                                                        Moles in gas
                                            ----------------------------------
Component         log P           P    phi     Initial       Final       Delta

CH4(g)          -129.20  6.312e-130  0.998   4.089e-08   0.000e+00  -4.089e-08
CO2(g)            -1.38   4.180e-02  0.996   1.292e-05   1.291e-03   1.278e-03
N2(g)             -0.02   9.582e-01  1.000   3.190e-02   2.959e-02  -2.308e-03
O2(g)             -6.42   3.843e-07  0.999   8.179e-03   1.187e-08  -8.179e-03

-------------------------------Phase assemblage--------------------------------

                                                      Moles in assemblage
Phase               SI  log IAP  log K(T, P)   Initial       Final       Delta

Calcite           0.00    -8.48     -8.48    1.000e+01   9.999e+00  -7.423e-04
Dolomite          0.00   -17.09    -17.09    1.000e+01   9.998e+00  -2.018e-03

-----------------------------Solution composition------------------------------

	Elements           Molality       Moles

	C                 7.512e-03   7.512e-03
	Ca                2.761e-03   2.761e-03
	Mg                2.018e-03   2.018e-03
	N                 7.617e-03   7.617e-03

----------------------------Description of solution----------------------------

                                       pH  =   6.918      Charge balance
                                       pe  =  12.275      Adjusted to redox equilibrium
      Specific Conductance (µS/cm,  25°C)  = 1092
                          Density (g/cm³)  =   0.99773
                               Volume (L)  =   1.00330
                        Activity of water  =   1.000
                 Ionic strength (mol/kgw)  =   1.535e-02
                       Mass of water (kg)  =   1.000e+00
                 Total alkalinity (eq/kg)  =   6.111e-03
                       Total CO2 (mol/kg)  =   7.512e-03
                         Temperature (°C)  =  25.00
                  Electrical balance (eq)  =  -2.896e-03
 Percent error, 100*(Cat-|An|)/(Cat+|An|)  = -13.43
                               Iterations  =  25
                                  Total H  = 1.110205e+02
                                  Total O  = 5.554738e+01

----------------------------Distribution of species----------------------------

                                               Log       Log       Log    mole V
   Species          Molality    Activity  Molality  Activity     Gamma   cm³/mol

   H+              1.342e-07   1.207e-07    -6.872    -6.918    -0.046      0.00
   OH-             9.523e-08   8.384e-08    -7.021    -7.077    -0.055     -4.00
   H2O             5.551e+01   9.997e-01     1.744    -0.000     0.000     18.07
C(-4)         0.000e+00
   CH4             0.000e+00   0.000e+00  -132.004  -132.003     0.002     35.46
C(4)          7.512e-03
   HCO3-           5.882e-03   5.221e-03    -2.230    -2.282    -0.052     24.80
   CO2             1.412e-03   1.417e-03    -2.850    -2.849     0.002     34.43
   CaHCO3+         1.223e-04   1.088e-04    -3.913    -3.964    -0.051      9.74
   MgHCO3+         8.373e-05   7.388e-05    -4.077    -4.131    -0.054      5.55
   CaCO3           5.545e-06   5.565e-06    -5.256    -5.255     0.002    -14.60
   CO3-2           3.269e-06   2.029e-06    -5.486    -5.693    -0.207     -4.92
   MgCO3           2.333e-06   2.341e-06    -5.632    -5.631     0.002    -17.09
   (CO2)2          3.673e-08   3.686e-08    -7.435    -7.433     0.002     68.87
Ca            2.761e-03
   Ca+2            2.633e-03   1.633e-03    -2.580    -2.787    -0.208    -17.86
   CaHCO3+         1.223e-04   1.088e-04    -3.913    -3.964    -0.051      9.74
   CaCO3           5.545e-06   5.565e-06    -5.256    -5.255     0.002    -14.60
   CaOH+           2.541e-09   2.245e-09    -8.595    -8.649    -0.054     (0)  
H(0)          0.000e+00
   H2              0.000e+00   0.000e+00   -41.538   -41.536     0.002     28.61
Mg            2.018e-03
   Mg+2            1.932e-03   1.209e-03    -2.714    -2.917    -0.203    -21.55
   MgHCO3+         8.373e-05   7.388e-05    -4.077    -4.131    -0.054      5.55
   MgCO3           2.333e-06   2.341e-06    -5.632    -5.631     0.002    -17.09
   MgOH+           4.081e-08   3.637e-08    -7.389    -7.439    -0.050     (0)  
N(-3)         0.000e+00
   NH4+            0.000e+00   0.000e+00   -50.500   -50.558    -0.057     18.04
   NH3             0.000e+00   0.000e+00   -52.885   -52.884     0.002     24.42
N(0)          1.274e-03
   N2              6.368e-04   6.391e-04    -3.196    -3.194     0.002     29.29
N(3)          9.690e-13
   NO2-            9.690e-13   8.512e-13   -12.014   -12.070    -0.056     25.05
N(5)          6.343e-03
   NO3-            6.343e-03   5.572e-03    -2.198    -2.254    -0.056     29.58
O(0)          9.805e-10
   O2              4.903e-10   4.920e-10    -9.310    -9.308     0.002     30.40

------------------------------Saturation indices-------------------------------

  Phase               SI** log IAP   log K(298 K,   1 atm)

  Aragonite        -0.14     -8.48   -8.34  CaCO3
  Calcite           0.00     -8.48   -8.48  CaCO3
  CH4(g)         -129.20   -132.00   -2.80  CH4	 Pressure   0.0 atm, phi 0.998
  CO2(g)           -1.38     -2.85   -1.47  CO2	 Pressure   0.0 atm, phi 0.996
  Dolomite          0.00    -17.09  -17.09  CaMg(CO3)2
  H2(g)           -38.44    -41.54   -3.10  H2
  H2O(g)           -1.50     -0.00    1.50  H2O
  N2(g)            -0.02     -3.19   -3.18  N2	 Pressure   1.0 atm, phi 1.000
  NH3(g)          -54.68    -52.88    1.80  NH3
  O2(g)            -6.42     -9.31   -2.89  O2	 Pressure   0.0 atm, phi 0.999

**For a gas, SI = log10(fugacity). Fugacity = pressure * phi / 1 atm.
  For ideal gases, phi = 1.

Reaction step 6.

Using solution 1.	
Using pure phase assemblage 1.	
Using gas phase 1.	
Using reaction 1.	

Reaction 1.	

	  1.000e-02 moles of the following reaction have been added:

	                 Relative
	Reactant            moles

	CH2O                 1.00000

	                 Relative
	Element             moles
	C                    1.00000
	H                    2.00000
	O                    1.00000

-----------------------------------Gas phase-----------------------------------

Total pressure:  1.00      atmospheres          (Peng-Robinson calculation)
    Gas volume:   8.44e-01 liters
  Molar volume:   2.44e+01 liters/mole
   P * Vm / RT:  0.99931  (Compressibility Factor Z) 

                                                        Moles in gas
                                            ----------------------------------
Component         log P           P    phi     Initial       Final       Delta

CH4(g)          -128.11  7.729e-129  0.998   4.089e-08   0.000e+00  -4.089e-08
CO2(g)            -1.14   7.237e-02  0.996   1.292e-05   2.497e-03   2.484e-03
N2(g)             -0.03   9.276e-01  1.000   3.190e-02   3.201e-02   1.114e-04
O2(g)             -6.84   1.445e-07  0.999   8.179e-03   4.987e-09  -8.179e-03

-------------------------------Phase assemblage--------------------------------

                                                      Moles in assemblage
Phase               SI  log IAP  log K(T, P)   Initial       Final       Delta

Calcite           0.00    -8.48     -8.48    1.000e+01   9.999e+00  -5.812e-04
Dolomite          0.00   -17.09    -17.09    1.000e+01   9.998e+00  -1.579e-03

-----------------------------Solution composition------------------------------

	Elements           Molality       Moles

	C                 1.126e-02   1.127e-02
	Ca                2.160e-03   2.160e-03
	Mg                1.579e-03   1.579e-03
	N                 2.777e-03   2.777e-03

----------------------------Description of solution----------------------------

                                       pH  =   6.848      Charge balance
                                       pe  =  12.239      Adjusted to redox equilibrium
      Specific Conductance (µS/cm,  25°C)  = 797
                          Density (g/cm³)  =   0.99763
                               Volume (L)  =   1.00336
                        Activity of water  =   1.000
                 Ionic strength (mol/kgw)  =   1.217e-02
                       Mass of water (kg)  =   1.000e+00
                 Total alkalinity (eq/kg)  =   8.830e-03
                       Total CO2 (mol/kg)  =   1.126e-02
                         Temperature (°C)  =  25.00
                  Electrical balance (eq)  =  -2.896e-03
 Percent error, 100*(Cat-|An|)/(Cat+|An|)  = -16.70
                               Iterations  =  23
                                  Total H  = 1.110325e+02
                                  Total O  = 5.554785e+01

----------------------------Distribution of species----------------------------

                                               Log       Log       Log    mole V
   Species          Molality    Activity  Molality  Activity     Gamma   cm³/mol

   H+              1.564e-07   1.419e-07    -6.806    -6.848    -0.042      0.00
   OH-             8.001e-08   7.132e-08    -7.097    -7.147    -0.050     -4.02
   H2O             5.551e+01   9.997e-01     1.744    -0.000     0.000     18.07
C(-4)         0.000e+00
   CH4             0.000e+00   0.000e+00  -130.916  -130.915     0.001     35.46
C(4)          1.126e-02
   HCO3-           8.567e-03   7.687e-03    -2.067    -2.114    -0.047     24.78
   CO2             2.446e-03   2.453e-03    -2.612    -2.610     0.001     34.43
   CaHCO3+         1.422e-04   1.279e-04    -3.847    -3.893    -0.046      9.73
   MgHCO3+         9.726e-05   8.686e-05    -4.012    -4.061    -0.049      5.54
   CaCO3           5.549e-06   5.565e-06    -5.256    -5.255     0.001    -14.60
   CO3-2           3.919e-06   2.541e-06    -5.407    -5.595    -0.188     -4.97
   MgCO3           2.335e-06   2.341e-06    -5.632    -5.631     0.001    -17.09
   (CO2)2          1.101e-07   1.104e-07    -6.958    -6.957     0.001     68.87
Ca            2.160e-03
   Ca+2            2.012e-03   1.304e-03    -2.696    -2.885    -0.188    -17.90
   CaHCO3+         1.422e-04   1.279e-04    -3.847    -3.893    -0.046      9.73
   CaCO3           5.549e-06   5.565e-06    -5.256    -5.255     0.001    -14.60
   CaOH+           1.706e-09   1.524e-09    -8.768    -8.817    -0.049     (0)  
H(0)          0.000e+00
   H2              0.000e+00   0.000e+00   -41.325   -41.324     0.001     28.61
Mg            1.579e-03
   Mg+2            1.479e-03   9.657e-04    -2.830    -3.015    -0.185    -21.58
   MgHCO3+         9.726e-05   8.686e-05    -4.012    -4.061    -0.049      5.54
   MgCO3           2.335e-06   2.341e-06    -5.632    -5.631     0.001    -17.09
   MgOH+           2.744e-08   2.470e-08    -7.562    -7.607    -0.046     (0)  
N(-3)         0.000e+00
   NH4+            0.000e+00   0.000e+00   -50.124   -50.176    -0.052     18.03
   NH3             0.000e+00   0.000e+00   -52.573   -52.572     0.001     24.42
N(0)          1.234e-03
   N2              6.169e-04   6.187e-04    -3.210    -3.209     0.001     29.29
N(3)          3.845e-13
   NO2-            3.845e-13   3.421e-13   -12.415   -12.466    -0.051     25.04
N(5)          1.543e-03
   NO3-            1.543e-03   1.373e-03    -2.812    -2.862    -0.051     29.56
O(0)          3.690e-10
   O2              1.845e-10   1.850e-10    -9.734    -9.733     0.001     30.40

------------------------------Saturation indices-------------------------------

  Phase               SI** log IAP   log K(298 K,   1 atm)

  Aragonite        -0.14     -8.48   -8.34  CaCO3
  Calcite           0.00     -8.48   -8.48  CaCO3
  CH4(g)         -128.11   -130.91   -2.80  CH4	 Pressure   0.0 atm, phi 0.998
  CO2(g)           -1.14     -2.61   -1.47  CO2	 Pressure   0.1 atm, phi 0.996
  Dolomite          0.00    -17.09  -17.09  CaMg(CO3)2
  H2(g)           -38.22    -41.32   -3.10  H2
  H2O(g)           -1.50     -0.00    1.50  H2O
  N2(g)            -0.03     -3.21   -3.18  N2	 Pressure   0.9 atm, phi 1.000
  NH3(g)          -54.37    -52.57    1.80  NH3
  O2(g)            -6.84     -9.73   -2.89  O2	 Pressure   0.0 atm, phi 0.999

**For a gas, SI = log10(fugacity). Fugacity = pressure * phi / 1 atm.
  For ideal gases, phi = 1.

Reaction step 7.

Using solution 1.	
Using pure phase assemblage 1.	
Using gas phase 1.	
Using reaction 1.	

Reaction 1.	

	  1.000e-01 moles of the following reaction have been added:

	                 Relative
	Reactant            moles

	CH2O                 1.00000

	                 Relative
	Element             moles
	C                    1.00000
	H                    2.00000
	O                    1.00000

-----------------------------------Gas phase-----------------------------------

Total pressure:  1.00      atmospheres          (Peng-Robinson calculation)
    Gas volume:   2.62e+00 liters
  Molar volume:   2.44e+01 liters/mole
   P * Vm / RT:  0.99750  (Compressibility Factor Z) 

                                                        Moles in gas
                                            ----------------------------------
Component         log P           P    phi     Initial       Final       Delta

CH4(g)            -0.41   3.897e-01  0.998   4.089e-08   4.178e-02   4.178e-02
CO2(g)            -0.49   3.210e-01  0.995   1.292e-05   3.441e-02   3.440e-02
N2(g)             -0.54   2.893e-01  1.000   3.190e-02   3.101e-02  -8.884e-04
O2(g)            -70.37   4.281e-71  0.999   8.179e-03   0.000e+00  -8.179e-03

-------------------------------Phase assemblage--------------------------------

                                                      Moles in assemblage
Phase               SI  log IAP  log K(T, P)   Initial       Final       Delta

Calcite           0.00    -8.48     -8.48    1.000e+01   9.999e+00  -8.135e-04
Dolomite          0.00   -17.09    -17.09    1.000e+01   9.998e+00  -2.160e-03

-----------------------------Solution composition------------------------------

	Elements           Molality       Moles

	C                 2.897e-02   2.897e-02
	Ca                2.974e-03   2.974e-03
	Mg                2.160e-03   2.160e-03
	N                 4.777e-03   4.777e-03

----------------------------Description of solution----------------------------

                                       pH  =   6.488      Charge balance
                                       pe  =  -3.283      Adjusted to redox equilibrium
      Specific Conductance (µS/cm,  25°C)  = 1426
                          Density (g/cm³)  =   0.99804
                               Volume (L)  =   1.00374
                        Activity of water  =   0.999
                 Ionic strength (mol/kgw)  =   2.009e-02
                       Mass of water (kg)  =   1.000e+00
                 Total alkalinity (eq/kg)  =   1.756e-02
                       Total CO2 (mol/kg)  =   2.836e-02
                         Temperature (°C)  =  25.00
                  Electrical balance (eq)  =  -2.896e-03
 Percent error, 100*(Cat-|An|)/(Cat+|An|)  =  -9.33
                               Iterations  =  22
                                  Total H  = 1.110454e+02
                                  Total O  = 5.557821e+01

----------------------------Distribution of species----------------------------

                                               Log       Log       Log    mole V
   Species          Molality    Activity  Molality  Activity     Gamma   cm³/mol

   H+              3.657e-07   3.252e-07    -6.437    -6.488    -0.051      0.00
   OH-             3.589e-08   3.110e-08    -7.445    -7.507    -0.062     -3.98
   H2O             5.551e+01   9.994e-01     1.744    -0.000     0.000     18.07
C(-4)         6.108e-04
   CH4             6.108e-04   6.136e-04    -3.214    -3.212     0.002     35.46
C(4)          2.836e-02
   HCO3-           1.697e-02   1.485e-02    -1.770    -1.828    -0.058     24.83
   CO2             1.082e-02   1.087e-02    -1.966    -1.964     0.002     34.43
   CaHCO3+         3.338e-04   2.931e-04    -3.476    -3.533    -0.057      9.75
   MgHCO3+         2.291e-04   1.991e-04    -3.640    -3.701    -0.061      5.56
   CaCO3           5.539e-06   5.565e-06    -5.257    -5.255     0.002    -14.60
   CO3-2           3.646e-06   2.142e-06    -5.438    -5.669    -0.231     -4.85
   MgCO3           2.331e-06   2.341e-06    -5.633    -5.631     0.002    -17.09
   (CO2)2          2.158e-06   2.168e-06    -5.666    -5.664     0.002     68.87
Ca            2.974e-03
   Ca+2            2.634e-03   1.547e-03    -2.579    -2.811    -0.231    -17.81
   CaHCO3+         3.338e-04   2.931e-04    -3.476    -3.533    -0.057      9.75
   CaCO3           5.539e-06   5.565e-06    -5.257    -5.255     0.002    -14.60
   CaOH+           9.061e-10   7.888e-10    -9.043    -9.103    -0.060     (0)  
H(0)          5.486e-10
   H2              2.743e-10   2.756e-10    -9.562    -9.560     0.002     28.61
Mg            2.160e-03
   Mg+2            1.929e-03   1.146e-03    -2.715    -2.941    -0.226    -21.50
   MgHCO3+         2.291e-04   1.991e-04    -3.640    -3.701    -0.061      5.56
   MgCO3           2.331e-06   2.341e-06    -5.633    -5.631     0.002    -17.09
   MgOH+           1.452e-08   1.278e-08    -7.838    -7.893    -0.055     (0)  
N(-3)         4.393e-03
   NH4+            4.386e-03   3.779e-03    -2.358    -2.423    -0.065     18.05
   NH3             6.591e-06   6.621e-06    -5.181    -5.179     0.002     24.42
N(0)          3.843e-04
   N2              1.921e-04   1.930e-04    -3.716    -3.714     0.002     29.29
N(3)          0.000e+00
   NO2-            0.000e+00   0.000e+00   -60.662   -60.725    -0.063     25.07
N(5)          0.000e+00
   NO3-            0.000e+00   0.000e+00   -82.822   -82.886    -0.063     29.59
O(0)          0.000e+00
   O2              0.000e+00   0.000e+00   -73.263   -73.261     0.002     30.40

------------------------------Saturation indices-------------------------------

  Phase               SI** log IAP   log K(298 K,   1 atm)

  Aragonite        -0.14     -8.48   -8.34  CaCO3
  Calcite           0.00     -8.48   -8.48  CaCO3
  CH4(g)           -0.41     -3.21   -2.80  CH4	 Pressure   0.4 atm, phi 0.998
  CO2(g)           -0.50     -1.96   -1.47  CO2	 Pressure   0.3 atm, phi 0.995
  Dolomite          0.00    -17.09  -17.09  CaMg(CO3)2
  H2(g)            -6.46     -9.56   -3.10  H2
  H2O(g)           -1.50     -0.00    1.50  H2O
  N2(g)            -0.54     -3.71   -3.18  N2	 Pressure   0.3 atm, phi 1.000
  NH3(g)           -6.98     -5.18    1.80  NH3
  O2(g)           -70.37    -73.26   -2.89  O2	 Pressure   0.0 atm, phi 0.999

**For a gas, SI = log10(fugacity). Fugacity = pressure * phi / 1 atm.
  For ideal gases, phi = 1.

Reaction step 8.

Using solution 1.	
Using pure phase assemblage 1.	
Using gas phase 1.	
Using reaction 1.	

Reaction 1.	

	  3.000e-01 moles of the following reaction have been added:

	                 Relative
	Reactant            moles

	CH2O                 1.00000

	                 Relative
	Element             moles
	C                    1.00000
	H                    2.00000
	O                    1.00000

-----------------------------------Gas phase-----------------------------------

Total pressure:  1.00      atmospheres          (Peng-Robinson calculation)
    Gas volume:   7.42e+00 liters
  Molar volume:   2.44e+01 liters/mole
   P * Vm / RT:  0.99674  (Compressibility Factor Z) 

                                                        Moles in gas
                                            ----------------------------------
Component         log P           P    phi     Initial       Final       Delta

CH4(g)            -0.33   4.672e-01  0.998   4.089e-08   1.421e-01   1.421e-01
CO2(g)            -0.37   4.285e-01  0.995   1.292e-05   1.303e-01   1.303e-01
N2(g)             -0.98   1.043e-01  1.000   3.190e-02   3.172e-02  -1.816e-04
O2(g)            -70.35   4.516e-71  1.000   8.179e-03   0.000e+00  -8.179e-03

-------------------------------Phase assemblage--------------------------------

                                                      Moles in assemblage
Phase               SI  log IAP  log K(T, P)   Initial       Final       Delta

Calcite           0.00    -8.48     -8.48    1.000e+01   9.999e+00  -1.002e-03
Dolomite          0.00   -17.09    -17.09    1.000e+01   9.997e+00  -2.652e-03

-----------------------------Solution composition------------------------------

	Elements           Molality       Moles

	C                 3.389e-02   3.389e-02
	Ca                3.655e-03   3.654e-03
	Mg                2.652e-03   2.652e-03
	N                 3.364e-03   3.363e-03

----------------------------Description of solution----------------------------

                                       pH  =   6.386      Charge balance
                                       pe  =  -3.175      Adjusted to redox equilibrium
      Specific Conductance (µS/cm,  25°C)  = 1479
                          Density (g/cm³)  =   0.99817
                               Volume (L)  =   1.00387
                        Activity of water  =   0.999
                 Ionic strength (mol/kgw)  =   2.214e-02
                       Mass of water (kg)  =   1.000e+00
                 Total alkalinity (eq/kg)  =   1.874e-02
                       Total CO2 (mol/kg)  =   3.316e-02
                         Temperature (°C)  =  25.00
                  Electrical balance (eq)  =  -2.896e-03
 Percent error, 100*(Cat-|An|)/(Cat+|An|)  =  -8.75
                               Iterations  =  25
                                  Total H  = 1.110442e+02
                                  Total O  = 5.558985e+01

----------------------------Distribution of species----------------------------

                                               Log       Log       Log    mole V
   Species          Molality    Activity  Molality  Activity     Gamma   cm³/mol

   H+              4.645e-07   4.114e-07    -6.333    -6.386    -0.053      0.00
   OH-             2.854e-08   2.459e-08    -7.545    -7.609    -0.065     -3.97
   H2O             5.551e+01   9.993e-01     1.744    -0.000     0.000     18.07
C(-4)         7.319e-04
   CH4             7.319e-04   7.356e-04    -3.136    -3.133     0.002     35.46
C(4)          3.316e-02
   HCO3-           1.799e-02   1.567e-02    -1.745    -1.805    -0.060     24.84
   CO2             1.443e-02   1.451e-02    -1.841    -1.838     0.002     34.43
   CaHCO3+         4.244e-04   3.708e-04    -3.372    -3.431    -0.059      9.75
   MgHCO3+         2.915e-04   2.519e-04    -3.535    -3.599    -0.063      5.57
   CaCO3           5.537e-06   5.565e-06    -5.257    -5.255     0.002    -14.60
   (CO2)2          3.842e-06   3.862e-06    -5.415    -5.413     0.002     68.87
   CO3-2           3.106e-06   1.786e-06    -5.508    -5.748    -0.240     -4.82
   MgCO3           2.330e-06   2.341e-06    -5.633    -5.631     0.002    -17.09
Ca            3.655e-03
   Ca+2            3.225e-03   1.854e-03    -2.492    -2.732    -0.240    -17.80
   CaHCO3+         4.244e-04   3.708e-04    -3.372    -3.431    -0.059      9.75
   CaCO3           5.537e-06   5.565e-06    -5.257    -5.255     0.002    -14.60
   CaOH+           8.636e-10   7.475e-10    -9.064    -9.126    -0.063     (0)  
H(0)          5.338e-10
   H2              2.669e-10   2.683e-10    -9.574    -9.571     0.002     28.61
Mg            2.652e-03
   Mg+2            2.359e-03   1.374e-03    -2.627    -2.862    -0.235    -21.49
   MgHCO3+         2.915e-04   2.519e-04    -3.535    -3.599    -0.063      5.57
   MgCO3           2.330e-06   2.341e-06    -5.633    -5.631     0.002    -17.09
   MgOH+           1.383e-08   1.211e-08    -7.859    -7.917    -0.058     (0)  
N(-3)         3.225e-03
   NH4+            3.221e-03   2.757e-03    -2.492    -2.560    -0.068     18.06
   NH3             3.799e-06   3.819e-06    -5.420    -5.418     0.002     24.42
N(0)          1.385e-04
   N2              6.925e-05   6.960e-05    -4.160    -4.157     0.002     29.29
N(3)          0.000e+00
   NO2-            0.000e+00   0.000e+00   -60.965   -61.031    -0.066     25.08
N(5)          0.000e+00
   NO3-            0.000e+00   0.000e+00   -83.114   -83.180    -0.066     29.60
O(0)          0.000e+00
   O2              0.000e+00   0.000e+00   -73.240   -73.238     0.002     30.40

------------------------------Saturation indices-------------------------------

  Phase               SI** log IAP   log K(298 K,   1 atm)

  Aragonite        -0.14     -8.48   -8.34  CaCO3
  Calcite           0.00     -8.48   -8.48  CaCO3
  CH4(g)           -0.33     -3.13   -2.80  CH4	 Pressure   0.5 atm, phi 0.998
  CO2(g)           -0.37     -1.84   -1.47  CO2	 Pressure   0.4 atm, phi 0.995
  Dolomite          0.00    -17.09  -17.09  CaMg(CO3)2
  H2(g)            -6.47     -9.57   -3.10  H2
  H2O(g)           -1.50     -0.00    1.50  H2O
  N2(g)            -0.98     -4.16   -3.18  N2	 Pressure   0.1 atm, phi 1.000
  NH3(g)           -7.21     -5.42    1.80  NH3
  O2(g)           -70.35    -73.24   -2.89  O2	 Pressure   0.0 atm, phi 1.000

**For a gas, SI = log10(fugacity). Fugacity = pressure * phi / 1 atm.
  For ideal gases, phi = 1.

------------------
End of simulation.
------------------

------------------------------------
Reading input data for simulation 2.
------------------------------------

-------------------------------
End of Run after 0.024 Seconds.
-------------------------------

