WARNING: Database file from DATABASE keyword is used; command line argument ignored.
   Input file: gas
  Output file: gas.out
Database file: ../database/phreeqc.dat

------------------
Reading data base.
------------------

	SOLUTION_MASTER_SPECIES
	SOLUTION_SPECIES
	PHASES
	EXCHANGE_MASTER_SPECIES
	EXCHANGE_SPECIES
	SURFACE_MASTER_SPECIES
	SURFACE_SPECIES
	RATES
	END
------------------------------------
Reading input data for simulation 1.
------------------------------------

	DATABASE ../database/phreeqc.dat
	knobs
		logfile
	PRINT
		status false
	SELECTED_OUTPUT
		file 	gas.flat
		totals
			C C(4) C(-4) N N(5) N(3) N(0) N(-3)
		si	
			CO2(g) CH4(g) O2(g) N2(g)
		gases	CO2(g) CH4(g) O2(g) N2(g)
	SOLUTION 1
		units mmol/L
		pH	4.0
		temp 	25.
		C(4)	1.0	CO2(g)	-3.5
		N(5)	3.0
	REACTION 1
		CH2O	1.0
		0.0 1.0 2.0 3.0 4.0 10.0 100. 300. mmol
	PURE_PHASES 1
		Calcite
		Dolomite
	GAS_PHASE 1
		pressure	 	1.0
		volume		1.0
		temp		25.0
		CH4(g)          0.000001
		CO2(g)		0.000316
		O2(g)		0.2
		N2(g)		0.78
	END
-------------------------------------------
Beginning of initial solution calculations.
-------------------------------------------

Initial solution 1.	

-----------------------------Solution composition------------------------------

	Elements           Molality       Moles

	C(4)              1.098e-05   1.098e-05  Equilibrium with CO2(g)
	N(5)              3.000e-03   3.000e-03

----------------------------Description of solution----------------------------

                                       pH  =   4.000    
                                       pe  =   4.000    
       Specific Conductance (uS/cm, 25 oC) = 244
                          Density (g/cm3)  =   0.99714
                               Volume (L)  =   1.00306
                        Activity of water  =   1.000
                           Ionic strength  =   1.552e-03
                       Mass of water (kg)  =   1.000e+00
                 Total alkalinity (eq/kg)  =  -1.042e-04
                       Total CO2 (mol/kg)  =   1.098e-05
                      Temperature (deg C)  =  25.00
                  Electrical balance (eq)  =  -2.896e-03
 Percent error, 100*(Cat-|An|)/(Cat+|An|)  = -93.29
                               Iterations  =   3
                                  Total H  = 1.110125e+02
                                  Total O  = 5.551524e+01

----------------------------Distribution of species----------------------------

                                               Log       Log       Log    mole V
   Species          Molality    Activity  Molality  Activity     Gamma   cm3/mol

   H+              1.042e-04   1.000e-04    -3.982    -4.000    -0.018      0.00
   OH-             1.058e-10   1.012e-10    -9.976    -9.995    -0.019     -4.10
   H2O             5.551e+01   9.999e-01     1.744    -0.000     0.000     18.07
C(4)          1.098e-05
   CO2             1.093e-05   1.093e-05    -4.962    -4.961     0.000     29.09
   HCO3-           5.076e-08   4.861e-08    -7.294    -7.313    -0.019     24.72
   CO3-2           2.710e-14   2.280e-14   -13.567   -13.642    -0.075     -5.48
H(0)          1.415e-19
   H2              7.077e-20   7.079e-20   -19.150   -19.150     0.000     28.61
N(5)          3.000e-03
   NO3-            3.000e-03   2.870e-03    -2.523    -2.542    -0.019     29.54
O(0)          0.000e+00
   O2              0.000e+00   0.000e+00   -54.080   -54.080     0.000     30.40

------------------------------Saturation indices-------------------------------

	Phase               SI** log IAP   log K(298 K,   1 atm)

	CO2(g)           -3.50     -4.96   -1.46  CO2	 Pressure   0.0 atm, phi 1.000
	H2(g)           -16.05    -19.15   -3.10  H2
	H2O(g)           -1.50     -0.00    1.50  H2O
	O2(g)           -51.19    -54.08   -2.89  O2	 Pressure   0.2 atm, phi 0.999

**For a gas, SI = log10(fugacity). For ideal gases, fugacity = pressure / 1 atm.
For a Peng-Robinson gas, fugacity = pressure * phi / 1 atm

-----------------------------------------
Beginning of batch-reaction calculations.
-----------------------------------------

Reaction step 1.

Using solution 1.	
Using pure phase assemblage 1.	
Using gas phase 1.	
Using reaction 1.	

Reaction 1.	

	  0.000e+00 moles of the following reaction have been added:

	                 Relative
	Reactant            moles

	CH2O                 1.00000

	                 Relative
	Element             moles
	C                    1.00000
	H                    2.00000
	O                    1.00000

-----------------------------------Gas phase-----------------------------------

Total pressure:  1.00      atmospheres          (Peng-Robinson calculation)
    Gas volume:   6.98e-01 liters
  Molar volume:   2.45e+01 liters/mole
   P * Vm / RT:  0.99948  (Compressibility Factor Z) 

                                                        Moles in gas
                                            ----------------------------------
Component         log P           P    phi     Initial       Final       Delta

CH4(g)          -129.53  2.956e-130  0.998   4.089e-08   0.000e+00  -4.089e-08
CO2(g)            -1.69   2.057e-02  0.996   1.292e-05   5.874e-04   5.745e-04
N2(g)             -0.01   9.794e-01  1.000   3.190e-02   2.798e-02  -3.922e-03
O2(g)             -6.38   4.163e-07  0.999   8.179e-03   1.189e-08  -8.179e-03

-------------------------------Phase assemblage--------------------------------

                                                      Moles in assemblage
Phase               SI  log IAP  log K(T, P)   Initial       Final       Delta

Calcite           0.00    -8.48     -8.48    1.000e+01   9.999e+00  -8.367e-04
Dolomite          0.00   -17.09    -17.09    1.000e+01   9.998e+00  -2.276e-03

-----------------------------Solution composition------------------------------

	Elements           Molality       Moles

	C                 4.826e-03   4.826e-03
	Ca                3.113e-03   3.113e-03
	Mg                2.276e-03   2.276e-03
	N                 1.085e-02   1.084e-02

----------------------------Description of solution----------------------------

                                       pH  =   7.045      Charge balance
                                       pe  =  12.157      Adjusted to redox equilibrium
       Specific Conductance (uS/cm, 25 oC) = 1276
                          Density (g/cm3)  =   0.99779
                               Volume (L)  =   1.00349
                        Activity of water  =   1.000
                           Ionic strength  =   1.729e-02
                       Mass of water (kg)  =   1.000e+00
                 Total alkalinity (eq/kg)  =   4.132e-03
                       Total CO2 (mol/kg)  =   4.826e-03
                      Temperature (deg C)  =  25.00
                  Electrical balance (eq)  =  -2.896e-03
 Percent error, 100*(Cat-|An|)/(Cat+|An|)  = -12.01
                               Iterations  =  26
                                  Total H  = 1.110125e+02
                                  Total O  = 5.554662e+01

----------------------------Distribution of species----------------------------

                                               Log       Log       Log    mole V
   Species          Molality    Activity  Molality  Activity     Gamma   cm3/mol

   OH-             1.282e-07   1.121e-07    -6.892    -6.950    -0.058     -4.00
   H+              1.008e-07   9.024e-08    -6.996    -7.045    -0.048      0.00
   H2O             5.551e+01   9.997e-01     1.744    -0.000     0.000     18.07
C(-4)         0.000e+00
   CH4             0.000e+00   0.000e+00  -132.375  -132.373     0.002     32.22
C(4)          4.826e-03
   HCO3-           3.955e-03   3.489e-03    -2.403    -2.457    -0.054     24.84
   CO2             7.054e-04   7.082e-04    -3.152    -3.150     0.002     29.09
   CaHCO3+         9.193e-05   8.132e-05    -4.037    -4.090    -0.053      9.74
   MgHCO3+         6.302e-05   5.524e-05    -4.201    -4.258    -0.057      5.55
   CaCO3           5.543e-06   5.565e-06    -5.256    -5.255     0.002    -14.60
   CO3-2           2.992e-06   1.814e-06    -5.524    -5.741    -0.218     -5.12
   MgCO3           2.332e-06   2.341e-06    -5.632    -5.631     0.002    -17.09
Ca            3.113e-03
   Ca+2            3.016e-03   1.827e-03    -2.521    -2.738    -0.218    -17.84
   CaHCO3+         9.193e-05   8.132e-05    -4.037    -4.090    -0.053      9.74
   CaCO3           5.543e-06   5.565e-06    -5.256    -5.255     0.002    -14.60
   CaOH+           3.826e-09   3.358e-09    -8.417    -8.474    -0.057     (0)  
H(0)          0.000e+00
   H2              0.000e+00   0.000e+00   -41.555   -41.553     0.002     28.61
Mg            2.276e-03
   Mg+2            2.211e-03   1.353e-03    -2.655    -2.869    -0.213    -21.53
   MgHCO3+         6.302e-05   5.524e-05    -4.201    -4.258    -0.057      5.55
   MgCO3           2.332e-06   2.341e-06    -5.632    -5.631     0.002    -17.09
   MgOH+           6.140e-08   5.442e-08    -7.212    -7.264    -0.052     (0)  
N(-3)         0.000e+00
   NH4+            0.000e+00   0.000e+00   -50.645   -50.705    -0.061     18.05
   NH3             0.000e+00   0.000e+00   -52.907   -52.905     0.002     24.46
N(0)          1.301e-03
   N2              6.506e-04   6.532e-04    -3.187    -3.185     0.002     29.29
N(3)          1.401e-12
   NO2-            1.401e-12   1.222e-12   -11.854   -11.913    -0.059     25.06
N(5)          9.544e-03
   NO3-            9.544e-03   8.324e-03    -2.020    -2.080    -0.059     29.63
O(0)          1.062e-09
   O2              5.308e-10   5.329e-10    -9.275    -9.273     0.002     30.40

------------------------------Saturation indices-------------------------------

	Phase               SI** log IAP   log K(298 K,   1 atm)

	Aragonite        -0.14     -8.48   -8.34  CaCO3
	Calcite           0.00     -8.48   -8.48  CaCO3
	CH4(g)         -129.53   -132.37   -2.84  CH4	 Pressure   0.0 atm, phi 0.998
	CO2(g)           -1.69     -3.15   -1.46  CO2	 Pressure   0.0 atm, phi 0.996
	Dolomite          0.00    -17.09  -17.09  CaMg(CO3)2
	H2(g)           -38.45    -41.55   -3.10  H2
	H2O(g)           -1.50     -0.00    1.50  H2O
	N2(g)            -0.01     -3.18   -3.18  N2	 Pressure   1.0 atm, phi 1.000
	NH3(g)          -54.70    -52.90    1.80  NH3
	O2(g)            -6.38     -9.27   -2.89  O2	 Pressure   0.0 atm, phi 0.999

**For a gas, SI = log10(fugacity). For ideal gases, fugacity = pressure / 1 atm.
For a Peng-Robinson gas, fugacity = pressure * phi / 1 atm

Reaction step 2.

Using solution 1.	
Using pure phase assemblage 1.	
Using gas phase 1.	
Using reaction 1.	

Reaction 1.	

	  1.000e-03 moles of the following reaction have been added:

	                 Relative
	Reactant            moles

	CH2O                 1.00000

	                 Relative
	Element             moles
	C                    1.00000
	H                    2.00000
	O                    1.00000

-----------------------------------Gas phase-----------------------------------

Total pressure:  1.00      atmospheres          (Peng-Robinson calculation)
    Gas volume:   7.12e-01 liters
  Molar volume:   2.45e+01 liters/mole
   P * Vm / RT:  0.99947  (Compressibility Factor Z) 

                                                        Moles in gas
                                            ----------------------------------
Component         log P           P    phi     Initial       Final       Delta

CH4(g)          -129.44  3.600e-130  0.998   4.089e-08   0.000e+00  -4.089e-08
CO2(g)            -1.59   2.568e-02  0.996   1.292e-05   7.479e-04   7.350e-04
N2(g)             -0.01   9.743e-01  1.000   3.190e-02   2.838e-02  -3.519e-03
O2(g)             -6.38   4.214e-07  0.999   8.179e-03   1.228e-08  -8.179e-03

-------------------------------Phase assemblage--------------------------------

                                                      Moles in assemblage
Phase               SI  log IAP  log K(T, P)   Initial       Final       Delta

Calcite           0.00    -8.48     -8.48    1.000e+01   9.999e+00  -8.158e-04
Dolomite          0.00   -17.09    -17.09    1.000e+01   9.998e+00  -2.219e-03

-----------------------------Solution composition------------------------------

	Elements           Molality       Moles

	C                 5.530e-03   5.530e-03
	Ca                3.035e-03   3.035e-03
	Mg                2.219e-03   2.219e-03
	N                 1.004e-02   1.004e-02

----------------------------Description of solution----------------------------

                                       pH  =   7.002      Charge balance
                                       pe  =  12.201      Adjusted to redox equilibrium
       Specific Conductance (uS/cm, 25 oC) = 1233
                          Density (g/cm3)  =   0.99778
                               Volume (L)  =   1.00353
                        Activity of water  =   1.000
                           Ionic strength  =   1.685e-02
                       Mass of water (kg)  =   1.000e+00
                 Total alkalinity (eq/kg)  =   4.660e-03
                       Total CO2 (mol/kg)  =   5.530e-03
                      Temperature (deg C)  =  25.00
                  Electrical balance (eq)  =  -2.896e-03
 Percent error, 100*(Cat-|An|)/(Cat+|An|)  = -12.30
                               Iterations  =  23
                                  Total H  = 1.110145e+02
                                  Total O  = 5.554689e+01

----------------------------Distribution of species----------------------------

                                               Log       Log       Log    mole V
   Species          Molality    Activity  Molality  Activity     Gamma   cm3/mol

   OH-             1.160e-07   1.016e-07    -6.936    -6.993    -0.058     -4.00
   H+              1.112e-07   9.961e-08    -6.954    -7.002    -0.048      0.00
   H2O             5.551e+01   9.997e-01     1.744    -0.000     0.000     18.07
C(-4)         0.000e+00
   CH4             0.000e+00   0.000e+00  -132.289  -132.287     0.002     32.22
C(4)          5.530e-03
   HCO3-           4.467e-03   3.947e-03    -2.350    -2.404    -0.054     24.84
   CO2             8.807e-04   8.842e-04    -3.055    -3.053     0.002     29.09
   CaHCO3+         1.013e-04   8.976e-05    -3.994    -4.047    -0.053      9.74
   MgHCO3+         6.946e-05   6.098e-05    -4.158    -4.215    -0.057      5.55
   CaCO3           5.543e-06   5.565e-06    -5.256    -5.255     0.002    -14.60
   CO3-2           3.050e-06   1.858e-06    -5.516    -5.731    -0.215     -5.13
   MgCO3           2.332e-06   2.341e-06    -5.632    -5.631     0.002    -17.09
Ca            3.035e-03
   Ca+2            2.928e-03   1.783e-03    -2.533    -2.749    -0.215    -17.85
   CaHCO3+         1.013e-04   8.976e-05    -3.994    -4.047    -0.053      9.74
   CaCO3           5.543e-06   5.565e-06    -5.256    -5.255     0.002    -14.60
   CaOH+           3.378e-09   2.969e-09    -8.471    -8.527    -0.056     (0)  
H(0)          0.000e+00
   H2              0.000e+00   0.000e+00   -41.558   -41.556     0.002     28.61
Mg            2.219e-03
   Mg+2            2.147e-03   1.320e-03    -2.668    -2.879    -0.211    -21.53
   MgHCO3+         6.946e-05   6.098e-05    -4.158    -4.215    -0.057      5.55
   MgCO3           2.332e-06   2.341e-06    -5.632    -5.631     0.002    -17.09
   MgOH+           5.422e-08   4.812e-08    -7.266    -7.318    -0.052     (0)  
N(-3)         0.000e+00
   NH4+            0.000e+00   0.000e+00   -50.608   -50.668    -0.060     18.04
   NH3             0.000e+00   0.000e+00   -52.912   -52.910     0.002     24.46
N(0)          1.295e-03
   N2              6.473e-04   6.498e-04    -3.189    -3.187     0.002     29.29
N(3)          1.276e-12
   NO2-            1.276e-12   1.114e-12   -11.894   -11.953    -0.059     25.06
N(5)          8.744e-03
   NO3-            8.744e-03   7.638e-03    -2.058    -2.117    -0.059     29.62
O(0)          1.075e-09
   O2              5.374e-10   5.395e-10    -9.270    -9.268     0.002     30.40

------------------------------Saturation indices-------------------------------

	Phase               SI** log IAP   log K(298 K,   1 atm)

	Aragonite        -0.14     -8.48   -8.34  CaCO3
	Calcite           0.00     -8.48   -8.48  CaCO3
	CH4(g)         -129.44   -132.29   -2.84  CH4	 Pressure   0.0 atm, phi 0.998
	CO2(g)           -1.59     -3.05   -1.46  CO2	 Pressure   0.0 atm, phi 0.996
	Dolomite          0.00    -17.09  -17.09  CaMg(CO3)2
	H2(g)           -38.46    -41.56   -3.10  H2
	H2O(g)           -1.50     -0.00    1.50  H2O
	N2(g)            -0.01     -3.19   -3.18  N2	 Pressure   1.0 atm, phi 1.000
	NH3(g)          -54.71    -52.91    1.80  NH3
	O2(g)            -6.38     -9.27   -2.89  O2	 Pressure   0.0 atm, phi 0.999

**For a gas, SI = log10(fugacity). For ideal gases, fugacity = pressure / 1 atm.
For a Peng-Robinson gas, fugacity = pressure * phi / 1 atm

Reaction step 3.

Using solution 1.	
Using pure phase assemblage 1.	
Using gas phase 1.	
Using reaction 1.	

Reaction 1.	

	  2.000e-03 moles of the following reaction have been added:

	                 Relative
	Reactant            moles

	CH2O                 1.00000

	                 Relative
	Element             moles
	C                    1.00000
	H                    2.00000
	O                    1.00000

-----------------------------------Gas phase-----------------------------------

Total pressure:  1.00      atmospheres          (Peng-Robinson calculation)
    Gas volume:   7.26e-01 liters
  Molar volume:   2.45e+01 liters/mole
   P * Vm / RT:  0.99945  (Compressibility Factor Z) 

                                                        Moles in gas
                                            ----------------------------------
Component         log P           P    phi     Initial       Final       Delta

CH4(g)          -129.35  4.419e-130  0.998   4.089e-08   0.000e+00  -4.089e-08
CO2(g)            -1.51   3.088e-02  0.996   1.292e-05   9.171e-04   9.042e-04
N2(g)             -0.01   9.691e-01  1.000   3.190e-02   2.878e-02  -3.115e-03
O2(g)             -6.38   4.172e-07  0.999   8.179e-03   1.239e-08  -8.179e-03

-------------------------------Phase assemblage--------------------------------

                                                      Moles in assemblage
Phase               SI  log IAP  log K(T, P)   Initial       Final       Delta

Calcite           0.00    -8.48     -8.48    1.000e+01   9.999e+00  -7.930e-04
Dolomite          0.00   -17.09    -17.09    1.000e+01   9.998e+00  -2.156e-03

-----------------------------Solution composition------------------------------

	Elements           Molality       Moles

	C                 6.213e-03   6.213e-03
	Ca                2.949e-03   2.949e-03
	Mg                2.156e-03   2.156e-03
	N                 9.231e-03   9.231e-03

----------------------------Description of solution----------------------------

                                       pH  =   6.967      Charge balance
                                       pe  =  12.234      Adjusted to redox equilibrium
       Specific Conductance (uS/cm, 25 oC) = 1187
                          Density (g/cm3)  =   0.99777
                               Volume (L)  =   1.00358
                        Activity of water  =   1.000
                           Ionic strength  =   1.638e-02
                       Mass of water (kg)  =   1.000e+00
                 Total alkalinity (eq/kg)  =   5.165e-03
                       Total CO2 (mol/kg)  =   6.213e-03
                      Temperature (deg C)  =  25.00
                  Electrical balance (eq)  =  -2.896e-03
 Percent error, 100*(Cat-|An|)/(Cat+|An|)  = -12.64
                               Iterations  =  23
                                  Total H  = 1.110165e+02
                                  Total O  = 5.554711e+01

----------------------------Distribution of species----------------------------

                                               Log       Log       Log    mole V
   Species          Molality    Activity  Molality  Activity     Gamma   cm3/mol

   H+              1.202e-07   1.078e-07    -6.920    -6.967    -0.047      0.00
   OH-             1.070e-07   9.388e-08    -6.971    -7.027    -0.057     -4.00
   H2O             5.551e+01   9.997e-01     1.744    -0.000     0.000     18.07
C(-4)         0.000e+00
   CH4             0.000e+00   0.000e+00  -132.200  -132.198     0.002     32.22
C(4)          6.213e-03
   HCO3-           4.958e-03   4.386e-03    -2.305    -2.358    -0.053     24.84
   CO2             1.059e-03   1.063e-03    -2.975    -2.973     0.002     29.09
   CaHCO3+         1.095e-04   9.713e-05    -3.961    -4.013    -0.052      9.74
   MgHCO3+         7.504e-05   6.598e-05    -4.125    -4.181    -0.056      5.55
   CaCO3           5.544e-06   5.565e-06    -5.256    -5.255     0.002    -14.60
   CO3-2           3.115e-06   1.909e-06    -5.506    -5.719    -0.213     -5.14
   MgCO3           2.333e-06   2.341e-06    -5.632    -5.631     0.002    -17.09
Ca            2.949e-03
   Ca+2            2.834e-03   1.736e-03    -2.548    -2.761    -0.213    -17.85
   CaHCO3+         1.095e-04   9.713e-05    -3.961    -4.013    -0.052      9.74
   CaCO3           5.544e-06   5.565e-06    -5.256    -5.255     0.002    -14.60
   CaOH+           3.035e-09   2.672e-09    -8.518    -8.573    -0.055     (0)  
H(0)          0.000e+00
   H2              0.000e+00   0.000e+00   -41.556   -41.554     0.002     28.61
Mg            2.156e-03
   Mg+2            2.079e-03   1.286e-03    -2.682    -2.891    -0.209    -21.54
   MgHCO3+         7.504e-05   6.598e-05    -4.125    -4.181    -0.056      5.55
   MgCO3           2.333e-06   2.341e-06    -5.632    -5.631     0.002    -17.09
   MgOH+           4.872e-08   4.329e-08    -7.312    -7.364    -0.051     (0)  
N(-3)         0.000e+00
   NH4+            0.000e+00   0.000e+00   -50.572   -50.631    -0.059     18.04
   NH3             0.000e+00   0.000e+00   -52.909   -52.908     0.002     24.46
N(0)          1.288e-03
   N2              6.439e-04   6.463e-04    -3.191    -3.190     0.002     29.29
N(3)          1.165e-12
   NO2-            1.165e-12   1.019e-12   -11.934   -11.992    -0.058     25.06
N(5)          7.943e-03
   NO3-            7.943e-03   6.951e-03    -2.100    -2.158    -0.058     29.62
O(0)          1.064e-09
   O2              5.320e-10   5.340e-10    -9.274    -9.272     0.002     30.40

------------------------------Saturation indices-------------------------------

	Phase               SI** log IAP   log K(298 K,   1 atm)

	Aragonite        -0.14     -8.48   -8.34  CaCO3
	Calcite           0.00     -8.48   -8.48  CaCO3
	CH4(g)         -129.36   -132.20   -2.84  CH4	 Pressure   0.0 atm, phi 0.998
	CO2(g)           -1.51     -2.97   -1.46  CO2	 Pressure   0.0 atm, phi 0.996
	Dolomite          0.00    -17.09  -17.09  CaMg(CO3)2
	H2(g)           -38.45    -41.55   -3.10  H2
	H2O(g)           -1.50     -0.00    1.50  H2O
	N2(g)            -0.01     -3.19   -3.18  N2	 Pressure   1.0 atm, phi 1.000
	NH3(g)          -54.70    -52.91    1.80  NH3
	O2(g)            -6.38     -9.27   -2.89  O2	 Pressure   0.0 atm, phi 0.999

**For a gas, SI = log10(fugacity). For ideal gases, fugacity = pressure / 1 atm.
For a Peng-Robinson gas, fugacity = pressure * phi / 1 atm

Reaction step 4.

Using solution 1.	
Using pure phase assemblage 1.	
Using gas phase 1.	
Using reaction 1.	

Reaction 1.	

	  3.000e-03 moles of the following reaction have been added:

	                 Relative
	Reactant            moles

	CH2O                 1.00000

	                 Relative
	Element             moles
	C                    1.00000
	H                    2.00000
	O                    1.00000

-----------------------------------Gas phase-----------------------------------

Total pressure:  1.00      atmospheres          (Peng-Robinson calculation)
    Gas volume:   7.40e-01 liters
  Molar volume:   2.45e+01 liters/mole
   P * Vm / RT:  0.99943  (Compressibility Factor Z) 

                                                        Moles in gas
                                            ----------------------------------
Component         log P           P    phi     Initial       Final       Delta

CH4(g)          -129.26  5.491e-130  0.998   4.089e-08   0.000e+00  -4.089e-08
CO2(g)            -1.44   3.612e-02  0.996   1.292e-05   1.094e-03   1.081e-03
N2(g)             -0.02   9.639e-01  1.000   3.190e-02   2.919e-02  -2.712e-03
O2(g)             -6.39   4.048e-07  0.999   8.179e-03   1.226e-08  -8.179e-03

-------------------------------Phase assemblage--------------------------------

                                                      Moles in assemblage
Phase               SI  log IAP  log K(T, P)   Initial       Final       Delta

Calcite           0.00    -8.48     -8.48    1.000e+01   9.999e+00  -7.687e-04
Dolomite          0.00   -17.09    -17.09    1.000e+01   9.998e+00  -2.090e-03

-----------------------------Solution composition------------------------------

	Elements           Molality       Moles

	C                 6.879e-03   6.879e-03
	Ca                2.859e-03   2.859e-03
	Mg                2.090e-03   2.090e-03
	N                 8.424e-03   8.424e-03

----------------------------Description of solution----------------------------

                                       pH  =   6.940      Charge balance
                                       pe  =  12.259      Adjusted to redox equilibrium
       Specific Conductance (uS/cm, 25 oC) = 1141
                          Density (g/cm3)  =   0.99776
                               Volume (L)  =   1.00362
                        Activity of water  =   1.000
                           Ionic strength  =   1.588e-02
                       Mass of water (kg)  =   1.000e+00
                 Total alkalinity (eq/kg)  =   5.651e-03
                       Total CO2 (mol/kg)  =   6.879e-03
                      Temperature (deg C)  =  25.00
                  Electrical balance (eq)  =  -2.896e-03
 Percent error, 100*(Cat-|An|)/(Cat+|An|)  = -13.01
                               Iterations  =  24
                                  Total H  = 1.110185e+02
                                  Total O  = 5.554728e+01

----------------------------Distribution of species----------------------------

                                               Log       Log       Log    mole V
   Species          Molality    Activity  Molality  Activity     Gamma   cm3/mol

   H+              1.280e-07   1.149e-07    -6.893    -6.940    -0.047      0.00
   OH-             1.002e-07   8.807e-08    -6.999    -7.055    -0.056     -4.00
   H2O             5.551e+01   9.997e-01     1.744    -0.000     0.000     18.07
C(-4)         0.000e+00
   CH4             0.000e+00   0.000e+00  -132.106  -132.104     0.002     32.22
C(4)          6.879e-03
   HCO3-           5.432e-03   4.814e-03    -2.265    -2.318    -0.053     24.84
   CO2             1.239e-03   1.244e-03    -2.907    -2.905     0.002     29.09
   CaHCO3+         1.166e-04   1.035e-04    -3.933    -3.985    -0.051      9.74
   MgHCO3+         7.986e-05   7.034e-05    -4.098    -4.153    -0.055      5.55
   CaCO3           5.545e-06   5.565e-06    -5.256    -5.255     0.002    -14.60
   CO3-2           3.187e-06   1.965e-06    -5.497    -5.707    -0.210     -5.15
   MgCO3           2.333e-06   2.341e-06    -5.632    -5.631     0.002    -17.09
Ca            2.859e-03
   Ca+2            2.737e-03   1.686e-03    -2.563    -2.773    -0.210    -17.86
   CaHCO3+         1.166e-04   1.035e-04    -3.933    -3.985    -0.051      9.74
   CaCO3           5.545e-06   5.565e-06    -5.256    -5.255     0.002    -14.60
   CaOH+           2.761e-09   2.435e-09    -8.559    -8.614    -0.055     (0)  
H(0)          0.000e+00
   H2              0.000e+00   0.000e+00   -41.549   -41.547     0.002     28.61
Mg            2.090e-03
   Mg+2            2.008e-03   1.249e-03    -2.697    -2.903    -0.206    -21.54
   MgHCO3+         7.986e-05   7.034e-05    -4.098    -4.153    -0.055      5.55
   MgCO3           2.333e-06   2.341e-06    -5.632    -5.631     0.002    -17.09
   MgOH+           4.433e-08   3.945e-08    -7.353    -7.404    -0.051     (0)  
N(-3)         0.000e+00
   NH4+            0.000e+00   0.000e+00   -50.536   -50.595    -0.058     18.04
   NH3             0.000e+00   0.000e+00   -52.901   -52.899     0.002     24.46
N(0)          1.281e-03
   N2              6.405e-04   6.428e-04    -3.193    -3.192     0.002     29.29
N(3)          1.063e-12
   NO2-            1.063e-12   9.322e-13   -11.973   -12.030    -0.057     25.06
N(5)          7.143e-03
   NO3-            7.143e-03   6.262e-03    -2.146    -2.203    -0.057     29.62
O(0)          1.032e-09
   O2              5.162e-10   5.181e-10    -9.287    -9.286     0.002     30.40

------------------------------Saturation indices-------------------------------

	Phase               SI** log IAP   log K(298 K,   1 atm)

	Aragonite        -0.14     -8.48   -8.34  CaCO3
	Calcite           0.00     -8.48   -8.48  CaCO3
	CH4(g)         -129.26   -132.10   -2.84  CH4	 Pressure   0.0 atm, phi 0.998
	CO2(g)           -1.44     -2.91   -1.46  CO2	 Pressure   0.0 atm, phi 0.996
	Dolomite          0.00    -17.09  -17.09  CaMg(CO3)2
	H2(g)           -38.45    -41.55   -3.10  H2
	H2O(g)           -1.50     -0.00    1.50  H2O
	N2(g)            -0.02     -3.19   -3.18  N2	 Pressure   1.0 atm, phi 1.000
	NH3(g)          -54.70    -52.90    1.80  NH3
	O2(g)            -6.39     -9.29   -2.89  O2	 Pressure   0.0 atm, phi 0.999

**For a gas, SI = log10(fugacity). For ideal gases, fugacity = pressure / 1 atm.
For a Peng-Robinson gas, fugacity = pressure * phi / 1 atm

Reaction step 5.

Using solution 1.	
Using pure phase assemblage 1.	
Using gas phase 1.	
Using reaction 1.	

Reaction 1.	

	  4.000e-03 moles of the following reaction have been added:

	                 Relative
	Reactant            moles

	CH2O                 1.00000

	                 Relative
	Element             moles
	C                    1.00000
	H                    2.00000
	O                    1.00000

-----------------------------------Gas phase-----------------------------------

Total pressure:  1.00      atmospheres          (Peng-Robinson calculation)
    Gas volume:   7.55e-01 liters
  Molar volume:   2.45e+01 liters/mole
   P * Vm / RT:  0.99941  (Compressibility Factor Z) 

                                                        Moles in gas
                                            ----------------------------------
Component         log P           P    phi     Initial       Final       Delta

CH4(g)          -129.16  6.943e-130  0.998   4.089e-08   0.000e+00  -4.089e-08
CO2(g)            -1.38   4.137e-02  0.996   1.292e-05   1.277e-03   1.264e-03
N2(g)             -0.02   9.586e-01  1.000   3.190e-02   2.959e-02  -2.309e-03
O2(g)             -6.41   3.852e-07  0.999   8.179e-03   1.189e-08  -8.179e-03

-------------------------------Phase assemblage--------------------------------

                                                      Moles in assemblage
Phase               SI  log IAP  log K(T, P)   Initial       Final       Delta

Calcite           0.00    -8.48     -8.48    1.000e+01   9.999e+00  -7.434e-04
Dolomite          0.00   -17.09    -17.09    1.000e+01   9.998e+00  -2.021e-03

-----------------------------Solution composition------------------------------

	Elements           Molality       Moles

	C                 7.533e-03   7.533e-03
	Ca                2.765e-03   2.765e-03
	Mg                2.021e-03   2.021e-03
	N                 7.617e-03   7.618e-03

----------------------------Description of solution----------------------------

                                       pH  =   6.917      Charge balance
                                       pe  =  12.276      Adjusted to redox equilibrium
       Specific Conductance (uS/cm, 25 oC) = 1093
                          Density (g/cm3)  =   0.99774
                               Volume (L)  =   1.00366
                        Activity of water  =   1.000
                           Ionic strength  =   1.537e-02
                       Mass of water (kg)  =   1.000e+00
                 Total alkalinity (eq/kg)  =   6.124e-03
                       Total CO2 (mol/kg)  =   7.533e-03
                      Temperature (deg C)  =  25.00
                  Electrical balance (eq)  =  -2.896e-03
 Percent error, 100*(Cat-|An|)/(Cat+|An|)  = -13.41
                               Iterations  =  25
                                  Total H  = 1.110205e+02
                                  Total O  = 5.554743e+01

----------------------------Distribution of species----------------------------

                                               Log       Log       Log    mole V
   Species          Molality    Activity  Molality  Activity     Gamma   cm3/mol

   H+              1.347e-07   1.211e-07    -6.871    -6.917    -0.046      0.00
   OH-             9.493e-08   8.358e-08    -7.023    -7.078    -0.055     -4.00
   H2O             5.551e+01   9.997e-01     1.744    -0.000     0.000     18.07
C(-4)         0.000e+00
   CH4             0.000e+00   0.000e+00  -132.004  -132.002     0.002     32.22
C(4)          7.533e-03
   HCO3-           5.895e-03   5.232e-03    -2.230    -2.281    -0.052     24.83
   CO2             1.420e-03   1.425e-03    -2.848    -2.846     0.002     29.09
   CaHCO3+         1.226e-04   1.091e-04    -3.911    -3.962    -0.051      9.74
   MgHCO3+         8.400e-05   7.412e-05    -4.076    -4.130    -0.054      5.55
   CaCO3           5.545e-06   5.565e-06    -5.256    -5.255     0.002    -14.60
   CO3-2           3.267e-06   2.027e-06    -5.486    -5.693    -0.207     -5.15
   MgCO3           2.333e-06   2.341e-06    -5.632    -5.631     0.002    -17.09
Ca            2.765e-03
   Ca+2            2.636e-03   1.635e-03    -2.579    -2.787    -0.208    -17.86
   CaHCO3+         1.226e-04   1.091e-04    -3.911    -3.962    -0.051      9.74
   CaCO3           5.545e-06   5.565e-06    -5.256    -5.255     0.002    -14.60
   CaOH+           2.536e-09   2.240e-09    -8.596    -8.650    -0.054     (0)  
H(0)          0.000e+00
   H2              0.000e+00   0.000e+00   -41.538   -41.537     0.002     28.61
Mg            2.021e-03
   Mg+2            1.935e-03   1.211e-03    -2.713    -2.917    -0.204    -21.55
   MgHCO3+         8.400e-05   7.412e-05    -4.076    -4.130    -0.054      5.55
   MgCO3           2.333e-06   2.341e-06    -5.632    -5.631     0.002    -17.09
   MgOH+           4.073e-08   3.630e-08    -7.390    -7.440    -0.050     (0)  
N(-3)         0.000e+00
   NH4+            0.000e+00   0.000e+00   -50.500   -50.557    -0.057     18.04
   NH3             0.000e+00   0.000e+00   -52.886   -52.884     0.002     24.46
N(0)          1.274e-03
   N2              6.371e-04   6.393e-04    -3.196    -3.194     0.002     29.29
N(3)          9.679e-13
   NO2-            9.679e-13   8.501e-13   -12.014   -12.071    -0.056     25.05
N(5)          6.343e-03
   NO3-            6.343e-03   5.571e-03    -2.198    -2.254    -0.056     29.62
O(0)          9.828e-10
   O2              4.914e-10   4.931e-10    -9.309    -9.307     0.002     30.40

------------------------------Saturation indices-------------------------------

	Phase               SI** log IAP   log K(298 K,   1 atm)

	Aragonite        -0.14     -8.48   -8.34  CaCO3
	Calcite           0.00     -8.48   -8.48  CaCO3
	CH4(g)         -129.16   -132.00   -2.84  CH4	 Pressure   0.0 atm, phi 0.998
	CO2(g)           -1.38     -2.85   -1.46  CO2	 Pressure   0.0 atm, phi 0.996
	Dolomite          0.00    -17.09  -17.09  CaMg(CO3)2
	H2(g)           -38.44    -41.54   -3.10  H2
	H2O(g)           -1.50     -0.00    1.50  H2O
	N2(g)            -0.02     -3.19   -3.18  N2	 Pressure   1.0 atm, phi 1.000
	NH3(g)          -54.68    -52.88    1.80  NH3
	O2(g)            -6.41     -9.31   -2.89  O2	 Pressure   0.0 atm, phi 0.999

**For a gas, SI = log10(fugacity). For ideal gases, fugacity = pressure / 1 atm.
For a Peng-Robinson gas, fugacity = pressure * phi / 1 atm

Reaction step 6.

Using solution 1.	
Using pure phase assemblage 1.	
Using gas phase 1.	
Using reaction 1.	

Reaction 1.	

	  1.000e-02 moles of the following reaction have been added:

	                 Relative
	Reactant            moles

	CH2O                 1.00000

	                 Relative
	Element             moles
	C                    1.00000
	H                    2.00000
	O                    1.00000

-----------------------------------Gas phase-----------------------------------

Total pressure:  1.00      atmospheres          (Peng-Robinson calculation)
    Gas volume:   8.43e-01 liters
  Molar volume:   2.44e+01 liters/mole
   P * Vm / RT:  0.99931  (Compressibility Factor Z) 

                                                        Moles in gas
                                            ----------------------------------
Component         log P           P    phi     Initial       Final       Delta

CH4(g)          -128.07  8.498e-129  0.998   4.089e-08   0.000e+00  -4.089e-08
CO2(g)            -1.14   7.170e-02  0.996   1.292e-05   2.472e-03   2.459e-03
N2(g)             -0.03   9.283e-01  1.000   3.190e-02   3.201e-02   1.110e-04
O2(g)             -6.84   1.450e-07  0.999   8.179e-03   4.998e-09  -8.179e-03

-------------------------------Phase assemblage--------------------------------

                                                      Moles in assemblage
Phase               SI  log IAP  log K(T, P)   Initial       Final       Delta

Calcite           0.00    -8.48     -8.48    1.000e+01   9.999e+00  -5.828e-04
Dolomite          0.00   -17.09    -17.09    1.000e+01   9.998e+00  -1.583e-03

-----------------------------Solution composition------------------------------

	Elements           Molality       Moles

	C                 1.130e-02   1.130e-02
	Ca                2.166e-03   2.166e-03
	Mg                1.583e-03   1.583e-03
	N                 2.778e-03   2.778e-03

----------------------------Description of solution----------------------------

                                       pH  =   6.846      Charge balance
                                       pe  =  12.241      Adjusted to redox equilibrium
       Specific Conductance (uS/cm, 25 oC) = 799
                          Density (g/cm3)  =   0.99765
                               Volume (L)  =   1.00390
                        Activity of water  =   1.000
                           Ionic strength  =   1.219e-02
                       Mass of water (kg)  =   1.000e+00
                 Total alkalinity (eq/kg)  =   8.850e-03
                       Total CO2 (mol/kg)  =   1.130e-02
                      Temperature (deg C)  =  25.00
                  Electrical balance (eq)  =  -2.896e-03
 Percent error, 100*(Cat-|An|)/(Cat+|An|)  = -16.66
                               Iterations  =  23
                                  Total H  = 1.110325e+02
                                  Total O  = 5.554793e+01

----------------------------Distribution of species----------------------------

                                               Log       Log       Log    mole V
   Species          Molality    Activity  Molality  Activity     Gamma   cm3/mol

   H+              1.571e-07   1.425e-07    -6.804    -6.846    -0.042      0.00
   OH-             7.968e-08   7.102e-08    -7.099    -7.149    -0.050     -4.02
   H2O             5.551e+01   9.997e-01     1.744    -0.000     0.000     18.07
C(-4)         0.000e+00
   CH4             0.000e+00   0.000e+00  -130.916  -130.914     0.001     32.22
C(4)          1.130e-02
   HCO3-           8.586e-03   7.703e-03    -2.066    -2.113    -0.047     24.81
   CO2             2.462e-03   2.468e-03    -2.609    -2.608     0.001     29.09
   CaHCO3+         1.428e-04   1.284e-04    -3.845    -3.891    -0.046      9.73
   MgHCO3+         9.769e-05   8.723e-05    -4.010    -4.059    -0.049      5.54
   CaCO3           5.549e-06   5.565e-06    -5.256    -5.255     0.001    -14.60
   CO3-2           3.913e-06   2.536e-06    -5.408    -5.596    -0.188     -5.21
   MgCO3           2.335e-06   2.341e-06    -5.632    -5.631     0.001    -17.09
Ca            2.166e-03
   Ca+2            2.017e-03   1.306e-03    -2.695    -2.884    -0.189    -17.90
   CaHCO3+         1.428e-04   1.284e-04    -3.845    -3.891    -0.046      9.73
   CaCO3           5.549e-06   5.565e-06    -5.256    -5.255     0.001    -14.60
   CaOH+           1.702e-09   1.521e-09    -8.769    -8.818    -0.049     (0)  
H(0)          0.000e+00
   H2              0.000e+00   0.000e+00   -41.326   -41.324     0.001     28.61
Mg            1.583e-03
   Mg+2            1.483e-03   9.677e-04    -2.829    -3.014    -0.185    -21.58
   MgHCO3+         9.769e-05   8.723e-05    -4.010    -4.059    -0.049      5.54
   MgCO3           2.335e-06   2.341e-06    -5.632    -5.631     0.001    -17.09
   MgOH+           2.738e-08   2.465e-08    -7.563    -7.608    -0.046     (0)  
N(-3)         0.000e+00
   NH4+            0.000e+00   0.000e+00   -50.123   -50.175    -0.052     18.03
   NH3             0.000e+00   0.000e+00   -52.574   -52.573     0.001     24.46
N(0)          1.235e-03
   N2              6.174e-04   6.191e-04    -3.209    -3.208     0.001     29.29
N(3)          3.839e-13
   NO2-            3.839e-13   3.415e-13   -12.416   -12.467    -0.051     25.04
N(5)          1.543e-03
   NO3-            1.543e-03   1.373e-03    -2.812    -2.862    -0.051     29.61
O(0)          3.701e-10
   O2              1.850e-10   1.855e-10    -9.733    -9.732     0.001     30.40

------------------------------Saturation indices-------------------------------

	Phase               SI** log IAP   log K(298 K,   1 atm)

	Aragonite        -0.14     -8.48   -8.34  CaCO3
	Calcite           0.00     -8.48   -8.48  CaCO3
	CH4(g)         -128.07   -130.91   -2.84  CH4	 Pressure   0.0 atm, phi 0.998
	CO2(g)           -1.15     -2.61   -1.46  CO2	 Pressure   0.1 atm, phi 0.996
	Dolomite          0.00    -17.09  -17.09  CaMg(CO3)2
	H2(g)           -38.22    -41.32   -3.10  H2
	H2O(g)           -1.50     -0.00    1.50  H2O
	N2(g)            -0.03     -3.21   -3.18  N2	 Pressure   0.9 atm, phi 1.000
	NH3(g)          -54.37    -52.57    1.80  NH3
	O2(g)            -6.84     -9.73   -2.89  O2	 Pressure   0.0 atm, phi 0.999

**For a gas, SI = log10(fugacity). For ideal gases, fugacity = pressure / 1 atm.
For a Peng-Robinson gas, fugacity = pressure * phi / 1 atm

Reaction step 7.

Using solution 1.	
Using pure phase assemblage 1.	
Using gas phase 1.	
Using reaction 1.	

Reaction 1.	

	  1.000e-01 moles of the following reaction have been added:

	                 Relative
	Reactant            moles

	CH2O                 1.00000

	                 Relative
	Element             moles
	C                    1.00000
	H                    2.00000
	O                    1.00000

-----------------------------------Gas phase-----------------------------------

Total pressure:  1.00      atmospheres          (Peng-Robinson calculation)
    Gas volume:   2.62e+00 liters
  Molar volume:   2.44e+01 liters/mole
   P * Vm / RT:  0.99751  (Compressibility Factor Z) 

                                                        Moles in gas
                                            ----------------------------------
Component         log P           P    phi     Initial       Final       Delta

CH4(g)            -0.41   3.905e-01  0.998   4.089e-08   4.187e-02   4.187e-02
CO2(g)            -0.50   3.198e-01  0.995   1.292e-05   3.429e-02   3.428e-02
N2(g)             -0.54   2.897e-01  1.000   3.190e-02   3.107e-02  -8.312e-04
O2(g)            -70.35   4.511e-71  0.999   8.179e-03   0.000e+00  -8.179e-03

-------------------------------Phase assemblage--------------------------------

                                                      Moles in assemblage
Phase               SI  log IAP  log K(T, P)   Initial       Final       Delta

Calcite           0.00    -8.48     -8.48    1.000e+01   9.999e+00  -8.235e-04
Dolomite          0.00   -17.09    -17.09    1.000e+01   9.998e+00  -2.187e-03

-----------------------------Solution composition------------------------------

	Elements           Molality       Moles

	C                 2.905e-02   2.905e-02
	Ca                3.010e-03   3.010e-03
	Mg                2.187e-03   2.187e-03
	N                 4.663e-03   4.663e-03

----------------------------Description of solution----------------------------

                                       pH  =   6.483      Charge balance
                                       pe  =  -3.272      Adjusted to redox equilibrium
       Specific Conductance (uS/cm, 25 oC) = 1424
                          Density (g/cm3)  =   0.99810
                               Volume (L)  =   1.00511
                        Activity of water  =   0.999
                           Ionic strength  =   2.015e-02
                       Mass of water (kg)  =   1.000e+00
                 Total alkalinity (eq/kg)  =   1.757e-02
                       Total CO2 (mol/kg)  =   2.850e-02
                      Temperature (deg C)  =  25.00
                  Electrical balance (eq)  =  -2.896e-03
 Percent error, 100*(Cat-|An|)/(Cat+|An|)  =  -9.33
                               Iterations  =  22
                                  Total H  = 1.110450e+02
                                  Total O  = 5.557863e+01

----------------------------Distribution of species----------------------------

                                               Log       Log       Log    mole V
   Species          Molality    Activity  Molality  Activity     Gamma   cm3/mol

   H+              3.701e-07   3.291e-07    -6.432    -6.483    -0.051      0.00
   OH-             3.547e-08   3.074e-08    -7.450    -7.512    -0.062     -3.98
   H2O             5.551e+01   9.994e-01     1.744    -0.000     0.000     18.07
C(-4)         5.568e-04
   CH4             5.568e-04   5.594e-04    -3.254    -3.252     0.002     32.22
C(4)          2.850e-02
   HCO3-           1.697e-02   1.485e-02    -1.770    -1.828    -0.058     24.86
   CO2             1.095e-02   1.100e-02    -1.961    -1.959     0.002     29.09
   CaHCO3+         3.378e-04   2.966e-04    -3.471    -3.528    -0.057      9.75
   MgHCO3+         2.319e-04   2.015e-04    -3.635    -3.696    -0.061      5.56
   CaCO3           5.539e-06   5.565e-06    -5.257    -5.255     0.002    -14.60
   CO3-2           3.606e-06   2.117e-06    -5.443    -5.674    -0.231     -5.08
   MgCO3           2.331e-06   2.341e-06    -5.633    -5.631     0.002    -17.09
Ca            3.010e-03
   Ca+2            2.667e-03   1.565e-03    -2.574    -2.806    -0.232    -17.81
   CaHCO3+         3.378e-04   2.966e-04    -3.471    -3.528    -0.057      9.75
   CaCO3           5.539e-06   5.565e-06    -5.257    -5.255     0.002    -14.60
   CaOH+           9.062e-10   7.887e-10    -9.043    -9.103    -0.060     (0)  
H(0)          5.344e-10
   H2              2.672e-10   2.685e-10    -9.573    -9.571     0.002     28.61
Mg            2.187e-03
   Mg+2            1.953e-03   1.159e-03    -2.709    -2.936    -0.226    -21.50
   MgHCO3+         2.319e-04   2.015e-04    -3.635    -3.696    -0.061      5.56
   MgCO3           2.331e-06   2.341e-06    -5.633    -5.631     0.002    -17.09
   MgOH+           1.453e-08   1.278e-08    -7.838    -7.893    -0.056     (0)  
N(-3)         4.278e-03
   NH4+            4.272e-03   3.679e-03    -2.369    -2.434    -0.065     18.05
   NH3             6.342e-06   6.371e-06    -5.198    -5.196     0.002     24.46
N(0)          3.848e-04
   N2              1.924e-04   1.933e-04    -3.716    -3.714     0.002     29.29
N(3)          0.000e+00
   NO2-            0.000e+00   0.000e+00   -60.650   -60.713    -0.064     25.07
N(5)          0.000e+00
   NO3-            0.000e+00   0.000e+00   -82.799   -82.862    -0.064     29.64
O(0)          0.000e+00
   O2              0.000e+00   0.000e+00   -73.240   -73.238     0.002     30.40

------------------------------Saturation indices-------------------------------

	Phase               SI** log IAP   log K(298 K,   1 atm)

	Aragonite        -0.14     -8.48   -8.34  CaCO3
	Calcite           0.00     -8.48   -8.48  CaCO3
	CH4(g)           -0.41     -3.25   -2.84  CH4	 Pressure   0.4 atm, phi 0.998
	CO2(g)           -0.50     -1.96   -1.46  CO2	 Pressure   0.3 atm, phi 0.995
	Dolomite          0.00    -17.09  -17.09  CaMg(CO3)2
	H2(g)            -6.47     -9.57   -3.10  H2
	H2O(g)           -1.50     -0.00    1.50  H2O
	N2(g)            -0.54     -3.71   -3.18  N2	 Pressure   0.3 atm, phi 1.000
	NH3(g)           -6.99     -5.20    1.80  NH3
	O2(g)           -70.35    -73.24   -2.89  O2	 Pressure   0.0 atm, phi 0.999

**For a gas, SI = log10(fugacity). For ideal gases, fugacity = pressure / 1 atm.
For a Peng-Robinson gas, fugacity = pressure * phi / 1 atm

Reaction step 8.

Using solution 1.	
Using pure phase assemblage 1.	
Using gas phase 1.	
Using reaction 1.	

Reaction 1.	

	  3.000e-01 moles of the following reaction have been added:

	                 Relative
	Reactant            moles

	CH2O                 1.00000

	                 Relative
	Element             moles
	C                    1.00000
	H                    2.00000
	O                    1.00000

-----------------------------------Gas phase-----------------------------------

Total pressure:  1.00      atmospheres          (Peng-Robinson calculation)
    Gas volume:   7.42e+00 liters
  Molar volume:   2.44e+01 liters/mole
   P * Vm / RT:  0.99674  (Compressibility Factor Z) 

                                                        Moles in gas
                                            ----------------------------------
Component         log P           P    phi     Initial       Final       Delta

CH4(g)            -0.33   4.676e-01  0.998   4.089e-08   1.422e-01   1.422e-01
CO2(g)            -0.37   4.279e-01  0.995   1.292e-05   1.301e-01   1.301e-01
N2(g)             -0.98   1.044e-01  1.000   3.190e-02   3.176e-02  -1.382e-04
O2(g)            -70.32   4.766e-71  1.000   8.179e-03   0.000e+00  -8.179e-03

-------------------------------Phase assemblage--------------------------------

                                                      Moles in assemblage
Phase               SI  log IAP  log K(T, P)   Initial       Final       Delta

Calcite           0.00    -8.48     -8.48    1.000e+01   9.999e+00  -1.013e-03
Dolomite          0.00   -17.09    -17.09    1.000e+01   9.997e+00  -2.682e-03

-----------------------------Solution composition------------------------------

	Elements           Molality       Moles

	C                 3.408e-02   3.408e-02
	Ca                3.695e-03   3.695e-03
	Mg                2.682e-03   2.682e-03
	N                 3.277e-03   3.277e-03

----------------------------Description of solution----------------------------

                                       pH  =   6.381      Charge balance
                                       pe  =  -3.164      Adjusted to redox equilibrium
       Specific Conductance (uS/cm, 25 oC) = 1480
                          Density (g/cm3)  =   0.99826
                               Volume (L)  =   1.00547
                        Activity of water  =   0.999
                           Ionic strength  =   2.224e-02
                       Mass of water (kg)  =   1.000e+00
                 Total alkalinity (eq/kg)  =   1.879e-02
                       Total CO2 (mol/kg)  =   3.341e-02
                      Temperature (deg C)  =  25.00
                  Electrical balance (eq)  =  -2.896e-03
 Percent error, 100*(Cat-|An|)/(Cat+|An|)  =  -8.73
                               Iterations  =  23
                                  Total H  = 1.110438e+02
                                  Total O  = 5.559049e+01

----------------------------Distribution of species----------------------------

                                               Log       Log       Log    mole V
   Species          Molality    Activity  Molality  Activity     Gamma   cm3/mol

   H+              4.702e-07   4.164e-07    -6.328    -6.381    -0.053      0.00
   OH-             2.821e-08   2.429e-08    -7.550    -7.615    -0.065     -3.97
   H2O             5.551e+01   9.993e-01     1.744    -0.000     0.000     18.07
C(-4)         6.664e-04
   CH4             6.664e-04   6.699e-04    -3.176    -3.174     0.002     32.22
C(4)          3.341e-02
   HCO3-           1.804e-02   1.571e-02    -1.744    -1.804    -0.060     24.87
   CO2             1.464e-02   1.471e-02    -1.835    -1.832     0.002     29.09
   CaHCO3+         4.296e-04   3.752e-04    -3.367    -3.426    -0.059      9.76
   MgHCO3+         2.951e-04   2.549e-04    -3.530    -3.594    -0.064      5.57
   CaCO3           5.536e-06   5.565e-06    -5.257    -5.255     0.002    -14.60
   CO3-2           3.078e-06   1.769e-06    -5.512    -5.752    -0.241     -5.06
   MgCO3           2.330e-06   2.341e-06    -5.633    -5.631     0.002    -17.09
Ca            3.695e-03
   Ca+2            3.260e-03   1.873e-03    -2.487    -2.728    -0.241    -17.80
   CaHCO3+         4.296e-04   3.752e-04    -3.367    -3.426    -0.059      9.76
   CaCO3           5.536e-06   5.565e-06    -5.257    -5.255     0.002    -14.60
   CaOH+           8.619e-10   7.459e-10    -9.065    -9.127    -0.063     (0)  
H(0)          5.196e-10
   H2              2.598e-10   2.611e-10    -9.585    -9.583     0.002     28.61
Mg            2.682e-03
   Mg+2            2.384e-03   1.387e-03    -2.623    -2.858    -0.235    -21.48
   MgHCO3+         2.951e-04   2.549e-04    -3.530    -3.594    -0.064      5.57
   MgCO3           2.330e-06   2.341e-06    -5.633    -5.631     0.002    -17.09
   MgOH+           1.380e-08   1.209e-08    -7.860    -7.918    -0.058     (0)  
N(-3)         3.138e-03
   NH4+            3.135e-03   2.682e-03    -2.504    -2.572    -0.068     18.06
   NH3             3.652e-06   3.670e-06    -5.438    -5.435     0.002     24.46
N(0)          1.387e-04
   N2              6.936e-05   6.971e-05    -4.159    -4.157     0.002     29.29
N(3)          0.000e+00
   NO2-            0.000e+00   0.000e+00   -60.952   -61.019    -0.066     25.08
N(5)          0.000e+00
   NO3-            0.000e+00   0.000e+00   -83.090   -83.156    -0.066     29.64
O(0)          0.000e+00
   O2              0.000e+00   0.000e+00   -73.217   -73.214     0.002     30.40

------------------------------Saturation indices-------------------------------

	Phase               SI** log IAP   log K(298 K,   1 atm)

	Aragonite        -0.14     -8.48   -8.34  CaCO3
	Calcite           0.00     -8.48   -8.48  CaCO3
	CH4(g)           -0.33     -3.17   -2.84  CH4	 Pressure   0.5 atm, phi 0.998
	CO2(g)           -0.37     -1.83   -1.46  CO2	 Pressure   0.4 atm, phi 0.995
	Dolomite          0.00    -17.09  -17.09  CaMg(CO3)2
	H2(g)            -6.48     -9.58   -3.10  H2
	H2O(g)           -1.50     -0.00    1.50  H2O
	N2(g)            -0.98     -4.16   -3.18  N2	 Pressure   0.1 atm, phi 1.000
	NH3(g)           -7.23     -5.44    1.80  NH3
	O2(g)           -70.32    -73.21   -2.89  O2	 Pressure   0.0 atm, phi 1.000

**For a gas, SI = log10(fugacity). For ideal gases, fugacity = pressure / 1 atm.
For a Peng-Robinson gas, fugacity = pressure * phi / 1 atm

------------------
End of simulation.
------------------

------------------------------------
Reading input data for simulation 2.
------------------------------------

------------------------------
End of Run after 0.02 Seconds.
------------------------------

