WARNING: Database file from DATABASE keyword is used; command line argument ignored.
   Input file: gas_phase_pressure
  Output file: gas_phase_pressure.out
Database file: ../database/phreeqc.dat

------------------
Reading data base.
------------------

	SOLUTION_MASTER_SPECIES
	SOLUTION_SPECIES
	PHASES
	EXCHANGE_MASTER_SPECIES
	EXCHANGE_SPECIES
	SURFACE_MASTER_SPECIES
	SURFACE_SPECIES
	RATES
	END
------------------------------------
Reading input data for simulation 1.
------------------------------------

	database ../database/phreeqc.dat
	SOLUTION 1 pure water
	pressure 863
	EQUILIBRIUM_PHASES
	CH4(g) 3 0.434
	SAVE solution 1
	END
-------------------------------------------
Beginning of initial solution calculations.
-------------------------------------------

Initial solution 1.	pure water

-----------------------------Solution composition------------------------------

	Elements           Molality       Moles

	Pure water     

----------------------------Description of solution----------------------------

                                       pH  =   7.000    
                                       pe  =   4.000    
       Specific Conductance (uS/cm, 25 oC) = 0
                          Density (g/cm3)  =   1.03325
                               Volume (L)  =   0.96782
                        Activity of water  =   1.000
                           Ionic strength  =   1.491e-07
                       Mass of water (kg)  =   1.000e+00
                 Total alkalinity (eq/kg)  =   9.802e-08
                    Total carbon (mol/kg)  =   0.000e+00
                       Total CO2 (mol/kg)  =   0.000e+00
                      Temperature (deg C)  =  25.00
                           Pressure (atm)  = 863.00
                  Electrical balance (eq)  =  -9.802e-08
 Percent error, 100*(Cat-|An|)/(Cat+|An|)  = -32.88
                               Iterations  =   0
                                  Total H  = 1.110124e+02
                                  Total O  = 5.550622e+01

----------------------------Distribution of species----------------------------

                                               Log       Log       Log    mole V
   Species          Molality    Activity  Molality  Activity     Gamma   cm3/mol

   OH-             1.981e-07   1.980e-07    -6.703    -6.703    -0.000     -1.61
   H+              1.001e-07   1.000e-07    -7.000    -7.000    -0.000      0.00
   H2O             5.551e+01   1.000e+00     1.744     0.000     0.000     17.44
H(0)          5.226e-26
   H2              2.613e-26   2.613e-26   -25.583   -25.583     0.000     28.29
O(0)          0.000e+00
   O2              0.000e+00   0.000e+00   -41.996   -41.996     0.000     29.41

------------------------------Saturation indices-------------------------------

	Phase               SI   log IAP   log K(298 K, 863 atm)

	H2(g)           -22.05    -25.58   -3.53  H2
	H2O(g)           -1.24      0.00    1.24  H2O
	O2(g)           -38.65    -42.00   -3.34  O2


-----------------------------------------
Beginning of batch-reaction calculations.
-----------------------------------------

Reaction step 1.

Using solution 1.	pure water
Using pure phase assemblage 1.	

-------------------------------Phase assemblage--------------------------------

                                                      Moles in assemblage
Phase               SI  log IAP  log K(T, P)   Initial       Final       Delta

CH4(g)            2.94    -0.40     -3.34    4.340e-01   3.672e-02  -3.973e-01

-----------------------------Solution composition------------------------------

	Elements           Molality       Moles

	C                 3.973e-01   3.973e-01

----------------------------Description of solution----------------------------

                                       pH  =   6.988      Charge balance
                                       pe  =  -5.085      Adjusted to redox equilibrium
       Specific Conductance (uS/cm, 25 oC) = 0
                          Density (g/cm3)  =   1.02626
                               Volume (L)  =   0.99959
                        Activity of water  =   0.993
                           Ionic strength  =   1.518e-07
                       Mass of water (kg)  =   1.000e+00
                 Total alkalinity (eq/kg)  =   9.802e-08
                       Total CO2 (mol/kg)  =   1.021e-08
                      Temperature (deg C)  =  25.00
                           Pressure (atm)  = 863.00
                  Electrical balance (eq)  =  -9.802e-08
 Percent error, 100*(Cat-|An|)/(Cat+|An|)  = -32.29
                               Iterations  =  20
                                  Total H  = 1.126016e+02
                                  Total O  = 5.550622e+01

----------------------------Distribution of species----------------------------

                                               Log       Log       Log    mole V
   Species          Molality    Activity  Molality  Activity     Gamma   cm3/mol

   OH-             1.915e-07   1.914e-07    -6.718    -6.718    -0.000     -1.61
   H+              1.028e-07   1.027e-07    -6.988    -6.988    -0.000      0.00
   H2O             5.551e+01   9.932e-01     1.744    -0.003     0.000     17.44
C(-4)         3.973e-01
   CH4             3.973e-01   3.973e-01    -0.401    -0.401     0.000     32.22
C(4)          1.021e-08
   HCO3-           9.271e-09   9.267e-09    -8.033    -8.033    -0.000     25.31
   CO2             9.273e-10   9.273e-10    -9.033    -9.033     0.000     31.81
   CO3-2           9.909e-12   9.892e-12   -11.004   -11.005    -0.001      1.20
H(0)          8.167e-08
   H2              4.083e-08   4.083e-08    -7.389    -7.389     0.000     28.29
O(0)          0.000e+00
   O2              0.000e+00   0.000e+00   -78.390   -78.390     0.000     29.41

------------------------------Saturation indices-------------------------------

	Phase               SI   log IAP   log K(298 K, 863 atm)

	CH4(g)            2.94     -0.40   -3.34  CH4	 Pressure 1000.0 atm, phi 0.861.
	CO2(g)           -7.09     -9.03   -1.95  CO2
	H2(g)            -3.86     -7.39   -3.53  H2
	H2O(g)           -1.24     -0.00    1.24  H2O
	O2(g)           -75.05    -78.39   -3.34  O2


------------------
End of simulation.
------------------

------------------------------------
Reading input data for simulation 2.
------------------------------------

	USE solution 1
	GAS_PHASE 1
	fixed_pressure
	pressure 1e3
	CH4(g) 0e-6
-----------------------------------------
Beginning of batch-reaction calculations.
-----------------------------------------

Reaction step 1.

Using solution 1.	Solution after simulation 1.
Using gas phase 1.	

-----------------------------------Gas phase-----------------------------------

Total pressure: 1000.00      atmospheres          (Peng-Robinson calculation)
    Gas volume:   2.75e-03 liters
  Molar volume:   4.20e-02 liters/mole
   P * Vm / RT:  1.71688  (Compressibility Factor Z) 

                                                        Moles in gas
                                            ----------------------------------
Component         log P           P    phi     Initial       Final       Delta

CH4(g)             3.00   1.000e+03  0.861   0.000e+00   6.558e-02   6.558e-02

-----------------------------Solution composition------------------------------

	Elements           Molality       Moles

	C                 3.317e-01   3.317e-01

----------------------------Description of solution----------------------------

                                       pH  =   6.964      Charge balance
                                       pe  =  -5.071      Adjusted to redox equilibrium
       Specific Conductance (uS/cm, 25 oC) = 0
                          Density (g/cm3)  =   1.03257
                               Volume (L)  =   0.98935
                        Activity of water  =   0.994
                           Ionic strength  =   1.578e-07
                       Mass of water (kg)  =   1.000e+00
                 Total alkalinity (eq/kg)  =   9.802e-08
                       Total CO2 (mol/kg)  =   9.142e-09
                      Temperature (deg C)  =  25.00
                           Pressure (atm)  = 1000.00
                  Electrical balance (eq)  =  -9.802e-08
 Percent error, 100*(Cat-|An|)/(Cat+|An|)  = -31.07
                               Iterations  =  12
                                  Total H  = 1.123393e+02
                                  Total O  = 5.550622e+01

----------------------------Distribution of species----------------------------

                                               Log       Log       Log    mole V
   Species          Molality    Activity  Molality  Activity     Gamma   cm3/mol

   OH-             1.984e-07   1.983e-07    -6.702    -6.703    -0.000     -1.30
   H+              1.087e-07   1.087e-07    -6.964    -6.964    -0.000      0.00
   H2O             5.551e+01   9.944e-01     1.744    -0.002     0.000     17.35
C(-4)         3.317e-01
   CH4             3.317e-01   3.317e-01    -0.479    -0.479     0.000     32.22
C(4)          9.142e-09
   HCO3-           8.360e-09   8.356e-09    -8.078    -8.078    -0.000     25.41
   CO2             7.732e-10   7.732e-10    -9.112    -9.112     0.000     31.99
   CO3-2           9.435e-12   9.418e-12   -11.025   -11.026    -0.001      1.90
H(0)          7.314e-08
   H2              3.657e-08   3.657e-08    -7.437    -7.437     0.000     28.25
O(0)          0.000e+00
   O2              0.000e+00   0.000e+00   -78.417   -78.417     0.000     29.29

------------------------------Saturation indices-------------------------------

	Phase               SI   log IAP   log K(298 K, 1000 atm)

	CH4(g)            2.94     -0.48   -3.41  CH4	 Pressure 1000.0 atm, phi 0.861.
	CO2(g)           -7.08     -9.11   -2.03  CO2
	H2(g)            -3.83     -7.44   -3.60  H2
	H2O(g)           -1.20     -0.00    1.20  H2O
	O2(g)           -75.01    -78.42   -3.41  O2


------------------
End of simulation.
------------------

------------------------------------
Reading input data for simulation 3.
------------------------------------

------------------------------
End of Run after 0.02 Seconds.
------------------------------

