WARNING: Database file from DATABASE keyword is used; command line argument ignored.
   Input file: gas_fix_P
  Output file: gas_fix_P.out
Database file: ../database/phreeqc.dat

------------------
Reading data base.
------------------

	SOLUTION_MASTER_SPECIES
	SOLUTION_SPECIES
	PHASES
	EXCHANGE_MASTER_SPECIES
	EXCHANGE_SPECIES
	SURFACE_MASTER_SPECIES
	SURFACE_SPECIES
	RATES
	END
------------------------------------
Reading input data for simulation 1.
------------------------------------

	DATABASE ../database/phreeqc.dat
	SOLUTION 1
	  pH 3 charge
	GAS_PHASE 1
	    fixed_pressure
	    pressure 950.9
	    N2(g) 11
	    CO2(g) 470
	    H2O(g) 0.0
	REACTION
	 CO2 1
	 2*2
	INCREMENTAL_REACTIONS true
	END
-------------------------------------------
Beginning of initial solution calculations.
-------------------------------------------

Initial solution 1.	

-----------------------------Solution composition------------------------------

	Elements           Molality       Moles

	Pure water     

----------------------------Description of solution----------------------------

                                       pH  =   6.997      Charge balance
                                       pe  =   4.000    
       Specific Conductance (uS/cm, 25 oC) = 0
                          Density (g/cm3)  =   0.99704
                               Volume (L)  =   1.00297
                        Activity of water  =   1.000
                           Ionic strength  =   1.006e-07
                       Mass of water (kg)  =   1.000e+00
                 Total alkalinity (eq/kg)  =   1.343e-16
                    Total carbon (mol/kg)  =   0.000e+00
                       Total CO2 (mol/kg)  =   0.000e+00
                      Temperature (deg C)  =  25.00
                  Electrical balance (eq)  =  -1.343e-16
 Percent error, 100*(Cat-|An|)/(Cat+|An|)  =  -0.00
                               Iterations  =  12
                                  Total H  = 1.110124e+02
                                  Total O  = 5.550622e+01

----------------------------Distribution of species----------------------------

                                               Log       Log       Log    mole V
   Species          Molality    Activity  Molality  Activity     Gamma   cm3/mol

   OH-             1.006e-07   1.006e-07    -6.997    -6.997    -0.000     -4.14
   H+              1.006e-07   1.006e-07    -6.997    -6.997    -0.000      0.00
   H2O             5.551e+01   1.000e+00     1.744    -0.000     0.000     18.07
H(0)          1.433e-25
   H2              7.166e-26   7.166e-26   -25.145   -25.145     0.000     28.61
O(0)          0.000e+00
   O2              0.000e+00   0.000e+00   -42.090   -42.090     0.000     30.40

------------------------------Saturation indices-------------------------------

  Phase               SI** log IAP   log K(298 K,   1 atm)

  H2(g)           -22.04    -25.14   -3.10  H2
  H2O(g)           -1.50     -0.00    1.50  H2O
  O2(g)           -39.20    -42.09   -2.89  O2

**For a gas, SI = log10(fugacity). Fugacity = pressure * phi / 1 atm.
  For ideal gases, phi = 1.

-----------------------------------------
Beginning of batch-reaction calculations.
-----------------------------------------

Reaction step 1.

Using solution 1.	
Using gas phase 1.	
Using reaction 1.	

Reaction 1.	

	  2.000e+00 moles of the following reaction have been added:

	                 Relative
	Reactant            moles

	CO2                  1.00000

	                 Relative
	Element             moles
	C                    1.00000
	O                    2.00000

-----------------------------------Gas phase-----------------------------------

Total pressure: 950.90      atmospheres          (Peng-Robinson calculation)
    Gas volume:   9.00e-01 liters
  Molar volume:   3.65e-02 liters/mole
   P * Vm / RT:  1.41855  (Compressibility Factor Z) 

                                                        Moles in gas
                                            ----------------------------------
Component         log P           P    phi     Initial       Final       Delta

CO2(g)             2.97   9.263e+02  0.206   2.392e+01   2.402e+01   1.073e-01
H2O(g)             0.56   3.599e+00  0.017   0.000e+00   9.334e-02   9.334e-02
N2(g)              1.32   2.099e+01  3.421   5.597e-01   5.444e-01  -1.534e-02

-----------------------------Solution composition------------------------------

	Elements           Molality       Moles

	C                 1.896e+00   1.893e+00
	N                 3.072e-02   3.067e-02

----------------------------Description of solution----------------------------

                                       pH  =   2.841      Charge balance
                                       pe  =  14.668      Adjusted to redox equilibrium
       Specific Conductance (uS/cm, 25 oC) = 576
                          Density (g/cm3)  =   1.05646
                               Volume (L)  =   1.11202
                        Activity of water  =   0.967
                           Ionic strength  =   1.499e-03
                       Mass of water (kg)  =   9.983e-01
                 Total alkalinity (eq/kg)  =   1.757e-15
                       Total CO2 (mol/kg)  =   1.896e+00
                      Temperature (deg C)  =  25.00
                           Pressure (atm)  = 950.90
                  Electrical balance (eq)  =  -3.820e-14
 Percent error, 100*(Cat-|An|)/(Cat+|An|)  =  -0.00
                               Iterations  =  31
                                  Total H  = 1.108257e+02
                                  Total O  = 5.919827e+01

----------------------------Distribution of species----------------------------

                                               Log       Log       Log    mole V
   Species          Molality    Activity  Molality  Activity     Gamma   cm3/mol

   H+              1.499e-03   1.441e-03    -2.824    -2.841    -0.017      0.00
   OH-             1.467e-11   1.408e-11   -10.833   -10.852    -0.018     -1.38
   H2O             5.551e+01   9.675e-01     1.744    -0.014     0.000     17.38
C(-4)         0.000e+00
   CH4             0.000e+00   0.000e+00  -115.970  -115.970     0.000     32.22
C(4)          1.896e+00
   CO2             1.894e+00   1.895e+00     0.277     0.278     0.000     32.11
   HCO3-           1.499e-03   1.439e-03    -2.824    -2.842    -0.018     25.45
   CO3-2           1.391e-10   1.182e-10    -9.857    -9.928    -0.071      1.61
H(0)          4.515e-39
   H2              2.257e-39   2.258e-39   -38.646   -38.646     0.000     28.27
N(-3)         0.000e+00
   NH4+            0.000e+00   0.000e+00   -40.800   -40.818    -0.018     19.27
   NH3             0.000e+00   0.000e+00   -47.318   -47.318     0.000     25.01
N(0)          3.072e-02
   N2              1.536e-02   1.537e-02    -1.814    -1.813     0.000     29.29
N(3)          7.890e-21
   NO2-            7.890e-21   7.566e-21   -20.103   -20.121    -0.018     24.87
N(5)          3.651e-14
   NO3-            3.651e-14   3.501e-14   -13.438   -13.456    -0.018     28.61
O(0)          2.103e-16
   O2              1.052e-16   1.052e-16   -15.978   -15.978     0.000     29.33

------------------------------Saturation indices-------------------------------

  Phase               SI** log IAP   log K(298 K, 951 atm)

  CH4(g)         -112.58   -115.97   -3.39  CH4
  CO2(g)            2.28      0.28   -2.00  CO2	 Pressure 926.3 atm, phi 0.206
  H2(g)           -35.07    -38.65   -3.58  H2
  H2O(g)           -1.22     -0.01    1.21  H2O	 Pressure   3.6 atm, phi 0.017
  N2(g)             1.86     -1.81   -3.67  N2	 Pressure  21.0 atm, phi 3.421
  NH3(g)          -48.69    -47.32    1.37  NH3
  O2(g)           -12.59    -15.98   -3.39  O2

**For a gas, SI = log10(fugacity). Fugacity = pressure * phi / 1 atm.
  For ideal gases, phi = 1.

Reaction step 2.

Using solution 1.	
Using gas phase 1.	
Using reaction 1.	

Reaction 1.	

	  2.000e+00 moles of the following reaction have been added:

	                 Relative
	Reactant            moles

	CO2                  1.00000

	                 Relative
	Element             moles
	C                    1.00000
	O                    2.00000

-----------------------------------Gas phase-----------------------------------

Total pressure: 950.90      atmospheres          (Peng-Robinson calculation)
    Gas volume:   9.73e-01 liters
  Molar volume:   3.65e-02 liters/mole
   P * Vm / RT:  1.41819  (Compressibility Factor Z) 

                                                        Moles in gas
                                            ----------------------------------
Component         log P           P    phi     Initial       Final       Delta

CO2(g)             2.97   9.278e+02  0.206   2.402e+01   2.602e+01   1.997e+00
H2O(g)             0.56   3.618e+00  0.016   9.334e-02   1.015e-01   8.122e-03
N2(g)              1.29   1.945e+01  3.430   5.444e-01   5.455e-01   1.088e-03

-----------------------------Solution composition------------------------------

	Elements           Molality       Moles

	C                 1.899e+00   1.895e+00
	N                 2.855e-02   2.849e-02

----------------------------Description of solution----------------------------

                                       pH  =   2.841      Charge balance
                                       pe  =  14.667      Adjusted to redox equilibrium
       Specific Conductance (uS/cm, 25 oC) = 577
                          Density (g/cm3)  =   1.05649
                               Volume (L)  =   1.11206
                        Activity of water  =   0.967
                           Ionic strength  =   1.500e-03
                       Mass of water (kg)  =   9.981e-01
                 Total alkalinity (eq/kg)  =   3.749e-15
                       Total CO2 (mol/kg)  =   1.899e+00
                      Temperature (deg C)  =  25.00
                           Pressure (atm)  = 950.90
                  Electrical balance (eq)  =  -3.820e-14
 Percent error, 100*(Cat-|An|)/(Cat+|An|)  =  -0.00
                               Iterations  =  10
                                  Total H  = 1.108095e+02
                                  Total O  = 5.919566e+01

----------------------------Distribution of species----------------------------

                                               Log       Log       Log    mole V
   Species          Molality    Activity  Molality  Activity     Gamma   cm3/mol

   H+              1.500e-03   1.442e-03    -2.824    -2.841    -0.017      0.00
   OH-             1.466e-11   1.406e-11   -10.834   -10.852    -0.018     -1.38
   H2O             5.551e+01   9.674e-01     1.744    -0.014     0.000     17.38
C(-4)         0.000e+00
   CH4             0.000e+00   0.000e+00  -115.956  -115.956     0.000     32.22
C(4)          1.899e+00
   CO2             1.897e+00   1.898e+00     0.278     0.278     0.000     32.11
   HCO3-           1.500e-03   1.440e-03    -2.824    -2.842    -0.018     25.45
   CO3-2           1.391e-10   1.182e-10    -9.857    -9.928    -0.071      1.61
H(0)          4.548e-39
   H2              2.274e-39   2.275e-39   -38.643   -38.643     0.000     28.27
N(-3)         0.000e+00
   NH4+            0.000e+00   0.000e+00   -40.811   -40.829    -0.018     19.27
   NH3             0.000e+00   0.000e+00   -47.329   -47.329     0.000     25.01
N(0)          2.855e-02
   N2              1.427e-02   1.428e-02    -1.845    -1.845     0.000     29.29
N(3)          7.516e-21
   NO2-            7.516e-21   7.207e-21   -20.124   -20.142    -0.018     24.87
N(5)          3.453e-14
   NO3-            3.453e-14   3.311e-14   -13.462   -13.480    -0.018     28.61
O(0)          2.073e-16
   O2              1.036e-16   1.037e-16   -15.985   -15.984     0.000     29.33

------------------------------Saturation indices-------------------------------

  Phase               SI** log IAP   log K(298 K, 951 atm)

  CH4(g)         -112.57   -115.96   -3.39  CH4
  CO2(g)            2.28      0.28   -2.00  CO2	 Pressure 927.8 atm, phi 0.206
  H2(g)           -35.07    -38.64   -3.58  H2
  H2O(g)           -1.22     -0.01    1.21  H2O	 Pressure   3.6 atm, phi 0.016
  N2(g)             1.82     -1.85   -3.67  N2	 Pressure  19.5 atm, phi 3.430
  NH3(g)          -48.70    -47.33    1.37  NH3
  O2(g)           -12.60    -15.98   -3.39  O2

**For a gas, SI = log10(fugacity). Fugacity = pressure * phi / 1 atm.
  For ideal gases, phi = 1.

------------------
End of simulation.
------------------

------------------------------------
Reading input data for simulation 2.
------------------------------------

------------------------------
End of Run after 0.01 Seconds.
------------------------------

