   Input file: gas_fix_P
  Output file: gas_fix_P.out
Database file: ../database/Amm.dat

------------------
Reading data base.
------------------

	SOLUTION_MASTER_SPECIES
	SOLUTION_SPECIES
	PHASES
	EXCHANGE_MASTER_SPECIES
	EXCHANGE_SPECIES
	SURFACE_MASTER_SPECIES
	SURFACE_SPECIES
	END
------------------------------------
Reading input data for simulation 1.
------------------------------------

	database ../database/Amm.dat
	SOLUTION 1
	  pH 3 charge
	PHASES
	Amm(g)
		Amm = Amm
		log_k	   1.7966
		analytical_expression -1.8758e+001 3.3670e-004 2.5113e+003 4.8619e+000 3.9192e+001
		t_c  405.6 # critical T, K
		p_c   111.3 # critical P, atm
		omega 0.25 #  acentric factor
		delta_v 30 # (estimated, not checked)
	CH4(g)
		CH4 = CH4
		log_k	   -2.8502
		analytical_expression -2.4027e+001 4.7146e-003 3.7227e+002 6.4264e+000 2.3362e+005
		T_c  190.6 # critical T, K
		p_c   45.40 # critical P, atm
		omega 0.008 #  acentric factor
		delta_v 33 # + temperature and pressure terms
	CO2(g)
		CO2 = CO2
		log_k	-1.468
		delta_h  -4.776 kcal
		analytical_expression	108.3865	0.01985076	-6919.53	-40.45154	669365.0
		t_c  304.2 # critical T, K
		p_c   72.80 # critical P, atm
		omega 0.225 #  acentric factor
		delta_v   28
	H2(g)
		H2 = H2
		log_k	   -3.1050
		delta_h -4.184  kJ
		analytical_expression   -9.3114e+000    4.6473e-003   -4.9335e+001    1.4341e+000    1.2815e+005
		t_c  33.2 # critical T, K
		p_c   12.80 # critical P, atm
		omega 0.225 #  acentric factor
		delta_v 30 # (estimated, not checked)
	H2O(g)
		H2O = H2O
		log_k  1.506
	 delta_h -44.03 kJ
		T_c  647.3 # critical T, K
		p_c  217.60 # critical P, atm
		omega 0.344 #  acentric factor
		delta_v 0e-4 # + temperature and pressure terms
	H2S(g)
		H2S  =  H+ + HS-
		log_k	   -7.9759
		analytical_expression -9.7354e+001 -3.1576e-002 1.8285e+003 3.7440e+001 2.8560e+001
		T_c  373.2 # critical T, K
		p_c  88.20 # critical P, atm
		omega 0.1 #  acentric factor
		delta_v 30 # + temperature and pressure terms
	N2(g)
		N2 = N2
		log_k		 -3.1864
		analytical_expression -58.453 1.81800E-03  3199  17.909 -27460
		T_c  126.2 # critical T, K
		p_c   33.50 # critical P, atm
		omega 0.039 #  acentric factor
		delta_v 30 # + temperature and pressure terms
	O2(g)
		O2 = O2
		log_k   -2.8983
		analytical_expression -7.5001 7.8981e-003 0.0 0.0 2.0027e+005
		T_c  154.6 # critical T, K
		p_c   49.80 # critical P, atm
		omega 0.021 #  acentric factor
		delta_v 35 # + temperature and pressure terms
	GAS_PHASE 1
	    fixed_pressure
	    pressure 950.9
	    N2(g) 11
	    CO2(g) 470
	    H2O(g) 0.0
	REACTION
	 CO2 1
	 2*2
	INCREMENTAL_REACTIONS true
	END
-------------------------------------------
Beginning of initial solution calculations.
-------------------------------------------

Initial solution 1.	

-----------------------------Solution composition------------------------------

	Elements           Molality       Moles

	Pure water     

----------------------------Description of solution----------------------------

                                       pH  =   7.000      Charge balance
                                       pe  =   4.000    
                        Activity of water  =   1.000
                           Ionic strength  =   1.001e-07
                       Mass of water (kg)  =   1.000e+00
                 Total alkalinity (eq/kg)  =   6.516e-16
                    Total carbon (mol/kg)  =   0.000e+00
                       Total CO2 (mol/kg)  =   0.000e+00
                      Temperature (deg C)  =  25.00
                  Electrical balance (eq)  =  -6.516e-16
 Percent error, 100*(Cat-|An|)/(Cat+|An|)  =  -0.00
                               Iterations  =  12
                                  Total H  = 1.110124e+02
                                  Total O  = 5.550622e+01

----------------------------Distribution of species----------------------------

                                                   Log       Log         Log 
   Species                 Molality    Activity  Molality  Activity     Gamma

   OH-                    1.001e-07   1.001e-07    -7.000    -7.000    -0.000
   H+                     1.001e-07   1.001e-07    -7.000    -7.000    -0.000
   H2O                    5.551e+01   1.000e+00     1.744    -0.000     0.000
H(0)             1.417e-25
   H2                     7.087e-26   7.087e-26   -25.150   -25.150     0.000
O(0)             0.000e+00
   O2                     0.000e+00   0.000e+00   -42.081   -42.081     0.000

------------------------------Saturation indices-------------------------------

	Phase               SI   log IAP   log K(298 K,   1 atm)

	H2(g)           -22.05    -25.15   -3.10  H2
	H2O(g)           -1.51     -0.00    1.51  H2O
	O2(g)           -39.19    -42.08   -2.89  O2


-----------------------------------------
Beginning of batch-reaction calculations.
-----------------------------------------

Reaction step 1.

Using solution 1.	
Using gas phase 1.	
Using reaction 1.	

Reaction 1.	Irreversible reaction defined in simulation 1.

	  2.000e+00 moles of the following reaction have been added:

	                 Relative
	Reactant            moles

	CO2                  1.00000

	                 Relative
	Element             moles
	C                    1.00000
	O                    2.00000

-----------------------------------Gas phase-----------------------------------

Total pressure: 950.90      atmospheres          (Peng-Robinson calculation)
    Gas volume:   8.93e-01 liters
  Molar volume:   3.63e-02 liters/mole
   P * Vm / RT:  1.41235  (Compressibility Factor Z) 

                                                        Moles in gas
                                            ----------------------------------
Component         log P           P    phi     Initial       Final       Delta

CO2(g)             2.96   9.189e+02  0.206   2.390e+01   2.374e+01  -1.615e-01
H2O(g)             1.04   1.093e+01  0.003   0.000e+00   2.824e-01   2.824e-01
N2(g)              1.32   2.106e+01  3.493   5.593e-01   5.441e-01  -1.523e-02

-----------------------------Solution composition------------------------------

	Elements           Molality       Moles

	C                 2.173e+00   2.161e+00
	N                 3.062e-02   3.047e-02

----------------------------Description of solution----------------------------

                                       pH  =   3.015      Charge balance
                                       pe  =  14.398      Adjusted to redox equilibrium
                        Activity of water  =   0.963
                           Ionic strength  =   9.983e-04
                       Mass of water (kg)  =   9.949e-01
                 Total alkalinity (eq/kg)  =  -2.826e-15
                       Total CO2 (mol/kg)  =   2.173e+00
                      Temperature (deg C)  =  25.00
                           Pressure (atm)  = 950.90
                  Electrical balance (eq)  =  -1.183e-15
 Percent error, 100*(Cat-|An|)/(Cat+|An|)  =  -0.00
                               Iterations  =  23
                                  Total H  = 1.104476e+02
                                  Total O  = 5.954671e+01

----------------------------Distribution of species----------------------------

                                                   Log       Log         Log 
   Species                 Molality    Activity  Molality  Activity     Gamma

   H+                     9.983e-04   9.650e-04    -3.001    -3.015    -0.015
   OH-                    1.035e-11   9.988e-12   -10.985   -11.001    -0.016
   H2O                    5.551e+01   9.628e-01     1.744    -0.016     0.000
C(-4)            0.000e+00
   CH4                    0.000e+00   0.000e+00  -114.551  -114.551     0.000
C(4)             2.173e+00
   CO2                    2.172e+00   2.172e+00     0.337     0.337     0.000
   HCO3-                  9.983e-04   9.638e-04    -3.001    -3.016    -0.015
   CO3-2                  5.390e-11   4.684e-11   -10.268   -10.329    -0.061
H(0)             2.104e-38
   H2                     1.052e-38   1.052e-38   -37.978   -37.978     0.000
N(0)             3.062e-02
   N2                     1.531e-02   1.531e-02    -1.815    -1.815     0.000
N(3)             2.303e-21
   NO2-                   2.303e-21   2.222e-21   -20.638   -20.653    -0.016
N(5)             4.015e-15
   NO3-                   4.015e-15   3.873e-15   -14.396   -14.412    -0.016
O(0)             6.976e-17
   O2                     3.488e-17   3.489e-17   -16.457   -16.457     0.000

------------------------------Saturation indices-------------------------------

	Phase               SI   log IAP   log K(298 K, 951 atm)

	CH4(g)         -111.15   -114.55   -3.40  CH4
	CO2(g)            2.28**    0.34   -1.94  CO2	 Pressure 918.9 atm, phi 0.206.
	H2(g)           -34.37    -37.98   -3.61  H2
	H2O(g)           -1.52**   -0.02    1.51  H2O	 Pressure  10.9 atm, phi 0.003.
	N2(g)             1.87**   -1.81   -3.68  N2	 Pressure  21.1 atm, phi 3.493.
	O2(g)           -12.97    -16.46   -3.48  O2
	                      ** SI from Peng-Robinson fugacity - Delta(V) * (P - 1) / 2.3RT.

Reaction step 2.

Using solution 1.	
Using gas phase 1.	
Using reaction 1.	

Reaction 1.	Irreversible reaction defined in simulation 1.

	  2.000e+00 moles of the following reaction have been added:

	                 Relative
	Reactant            moles

	CO2                  1.00000

	                 Relative
	Element             moles
	C                    1.00000
	O                    2.00000

-----------------------------------Gas phase-----------------------------------

Total pressure: 950.90      atmospheres          (Peng-Robinson calculation)
    Gas volume:   9.66e-01 liters
  Molar volume:   3.63e-02 liters/mole
   P * Vm / RT:  1.41196  (Compressibility Factor Z) 

                                                        Moles in gas
                                            ----------------------------------
Component         log P           P    phi     Initial       Final       Delta

CO2(g)             2.96   9.204e+02  0.206   2.374e+01   2.574e+01   1.997e+00
H2O(g)             1.04   1.099e+01  0.003   2.824e-01   3.073e-01   2.483e-02
N2(g)              1.29   1.950e+01  3.503   5.441e-01   5.452e-01   1.095e-03

-----------------------------Solution composition------------------------------

	Elements           Molality       Moles

	C                 2.176e+00   2.164e+00
	N                 2.843e-02   2.828e-02

----------------------------Description of solution----------------------------

                                       pH  =   3.015      Charge balance
                                       pe  =  14.439      Adjusted to redox equilibrium
                        Activity of water  =   0.963
                           Ionic strength  =   9.991e-04
                       Mass of water (kg)  =   9.944e-01
                 Total alkalinity (eq/kg)  =  -4.585e-15
                       Total CO2 (mol/kg)  =   2.176e+00
                      Temperature (deg C)  =  25.00
                           Pressure (atm)  = 950.90
                  Electrical balance (eq)  =  -1.539e-15
 Percent error, 100*(Cat-|An|)/(Cat+|An|)  =  -0.00
                               Iterations  =  18
                                  Total H  = 1.103979e+02
                                  Total O  = 5.952700e+01

----------------------------Distribution of species----------------------------

                                                   Log       Log         Log 
   Species                 Molality    Activity  Molality  Activity     Gamma

   H+                     9.991e-04   9.658e-04    -3.000    -3.015    -0.015
   OH-                    1.034e-11   9.979e-12   -10.985   -11.001    -0.016
   H2O                    5.551e+01   9.627e-01     1.744    -0.016     0.000
C(-4)            0.000e+00
   CH4                    0.000e+00   0.000e+00  -114.871  -114.871     0.000
C(4)             2.176e+00
   CO2                    2.175e+00   2.176e+00     0.337     0.338     0.000
   HCO3-                  9.991e-04   9.646e-04    -3.000    -3.016    -0.015
   CO3-2                  5.390e-11   4.684e-11   -10.268   -10.329    -0.061
H(0)             1.750e-38
   H2                     8.748e-39   8.750e-39   -38.058   -38.058     0.000
N(0)             2.843e-02
   N2                     1.422e-02   1.422e-02    -1.847    -1.847     0.000
N(3)             2.925e-21
   NO2-                   2.925e-21   2.822e-21   -20.534   -20.549    -0.016
N(5)             6.133e-15
   NO3-                   6.133e-15   5.916e-15   -14.212   -14.228    -0.016
O(0)             1.009e-16
   O2                     5.045e-17   5.046e-17   -16.297   -16.297     0.000

------------------------------Saturation indices-------------------------------

	Phase               SI   log IAP   log K(298 K, 951 atm)

	CH4(g)         -111.47   -114.87   -3.40  CH4
	CO2(g)            2.28**    0.34   -1.94  CO2	 Pressure 920.4 atm, phi 0.206.
	H2(g)           -34.45    -38.06   -3.61  H2
	H2O(g)           -1.52**   -0.02    1.51  H2O	 Pressure  11.0 atm, phi 0.003.
	N2(g)             1.83**   -1.85   -3.68  N2	 Pressure  19.5 atm, phi 3.503.
	O2(g)           -12.81    -16.30   -3.48  O2
	                      ** SI from Peng-Robinson fugacity - Delta(V) * (P - 1) / 2.3RT.

------------------
End of simulation.
------------------

------------------------------------
Reading input data for simulation 2.
------------------------------------

-----------
End of run.
-----------

