   Input file: gas_fix_V
  Output file: gas_fix_V.out
Database file: ../database/phreeqc.dat

------------------
Reading data base.
------------------

	SOLUTION_MASTER_SPECIES
	SOLUTION_SPECIES
	PHASES
	EXCHANGE_MASTER_SPECIES
	EXCHANGE_SPECIES
	SURFACE_MASTER_SPECIES
	SURFACE_SPECIES
	RATES
	END
------------------------------------
Reading input data for simulation 1.
------------------------------------

	DATABASE ../database/phreeqc.dat
	SOLUTION 1
	GAS_PHASE 6
	    fixed_volume
	    N2(g) 200
	    CO2(g) 0
	    H2O(g) 0
	    CH4(g) 200
	REACTION
	 CO2 1
	 6 4 2
	INCREMENTAL_REACTIONS true
	END
-------------------------------------------
Beginning of initial solution calculations.
-------------------------------------------

Initial solution 1.	

-----------------------------Solution composition------------------------------

	Elements           Molality       Moles

	Pure water     

----------------------------Description of solution----------------------------

                                       pH  =   7.000    
                                       pe  =   4.000    
       Specific Conductance (uS/cm, 25 oC) = 0
                          Density (g/cm3)  =   0.99705
                        Activity of water  =   1.000
                           Ionic strength  =   1.002e-07
                       Mass of water (kg)  =   1.000e+00
                 Total alkalinity (eq/kg)  =   2.208e-10
                    Total carbon (mol/kg)  =   0.000e+00
                       Total CO2 (mol/kg)  =   0.000e+00
                      Temperature (deg C)  =  25.00
                  Electrical balance (eq)  =  -2.208e-10
 Percent error, 100*(Cat-|An|)/(Cat+|An|)  =  -0.11
                               Iterations  =   0
                                  Total H  = 1.110124e+02
                                  Total O  = 5.550622e+01

----------------------------Distribution of species----------------------------

                                               Log       Log       Log    mole V
   Species          Molality    Activity  Molality  Activity     Gamma   cm3/mol

   OH-             1.003e-07   1.002e-07    -6.999    -6.999    -0.000     -4.11
   H+              1.001e-07   1.000e-07    -7.000    -7.000    -0.000      0.00
   H2O             5.551e+01   1.000e+00     1.744     0.000     0.000     18.07
H(0)          1.416e-25
   H2              7.079e-26   7.079e-26   -25.150   -25.150     0.000     28.61
O(0)          0.000e+00
   O2              0.000e+00   0.000e+00   -42.080   -42.080     0.000     30.40

------------------------------Saturation indices-------------------------------

	Phase               SI   log IAP   log K(298 K,   1 atm)

	H2(g)           -22.05    -25.15   -3.10  H2
	H2O(g)           -1.50      0.00    1.50  H2O
	O2(g)           -39.19    -42.08   -2.89  O2


-----------------------------------------
Beginning of batch-reaction calculations.
-----------------------------------------

Reaction step 1.

WARNING: Numerical method failed, switching to numerical derivatives.
WARNING: Maximum iterations exceeded, 100

WARNING: Numerical method failed with this set of convergence parameters.

WARNING: Trying smaller step size, pe step size 10, 5 ... 

Using solution 1.	
Using gas phase 6.	
Using reaction 1.	

Reaction 1.	

	  6.000e+00 moles of the following reaction have been added:

	                 Relative
	Reactant            moles

	CO2                  1.00000

	                 Relative
	Element             moles
	C                    1.00000
	O                    2.00000

-----------------------------------Gas phase-----------------------------------

Total pressure: 525.75      atmospheres          (Peng-Robinson calculation)
    Gas volume:   1.00e+00 liters
  Molar volume:   5.19e-02 liters/mole
   P * Vm / RT:  1.11555  (Compressibility Factor Z) 

                                                        Moles in gas
                                            ----------------------------------
Component         log P           P    phi     Initial       Final       Delta

CH4(g)             2.29   1.951e+02  0.667   7.476e+00   7.147e+00  -3.294e-01
CO2(g)             2.14   1.375e+02  0.266   0.000e+00   5.039e+00   5.039e+00
H2O(g)            -0.66   2.210e-01  0.200   0.000e+00   8.098e-03   8.098e-03
N2(g)              2.29   1.929e+02  1.273   7.476e+00   7.068e+00  -4.080e-01

-----------------------------Solution composition------------------------------

	Elements           Molality       Moles

	C                 1.318e+00   1.290e+00
	N                 8.337e-01   8.160e-01

----------------------------Description of solution----------------------------

                                       pH  =   6.030      Charge balance
                                       pe  =  -2.915      Adjusted to redox equilibrium
       Specific Conductance (uS/cm, 25 oC) = 22065
                          Density (g/cm3)  =   1.04521
                        Activity of water  =   0.965
                           Ionic strength  =   6.844e-01
                       Mass of water (kg)  =   9.787e-01
                 Total alkalinity (eq/kg)  =   6.843e-01
                       Total CO2 (mol/kg)  =   1.238e+00
                      Temperature (deg C)  =  25.00
                           Pressure (atm)  = 525.75
                  Electrical balance (eq)  =  -5.766e-11
 Percent error, 100*(Cat-|An|)/(Cat+|An|)  =  -0.00
                               Iterations  =  53
                                  Total H  = 1.123139e+02
                                  Total O  = 5.741919e+01

----------------------------Distribution of species----------------------------

                                               Log       Log       Log    mole V
   Species          Molality    Activity  Molality  Activity     Gamma   cm3/mol

   H+              1.228e-06   9.325e-07    -5.911    -6.030    -0.120      0.00
   OH-             2.497e-08   1.536e-08    -7.603    -7.814    -0.211     -0.65
   H2O             5.551e+01   9.647e-01     1.744    -0.016     0.000     17.67
C(-4)         7.994e-02
   CH4             7.994e-02   9.358e-02    -1.097    -1.029     0.068     32.22
C(4)          1.238e+00
   HCO3-           6.838e-01   4.656e-01    -0.165    -0.332    -0.167     28.23
   CO2             5.541e-01   6.486e-01    -0.256    -0.188     0.068     31.31
   CO3-2           1.900e-04   4.083e-05    -3.721    -4.389    -0.668      2.30
H(0)          3.863e-10
   H2              1.932e-10   2.261e-10    -9.714    -9.646     0.068     28.39
N(-3)         6.843e-01
   NH4+            6.842e-01   3.890e-01    -0.165    -0.410    -0.245     19.02
   NH3             1.799e-04   2.106e-04    -3.745    -3.677     0.068     24.68
N(0)          1.493e-01
   N2              7.467e-02   8.741e-02    -1.127    -1.058     0.068     29.29
N(3)          0.000e+00
   NO2-            0.000e+00   0.000e+00   -59.699   -59.926    -0.227     25.54
N(5)          0.000e+00
   NO3-            0.000e+00   0.000e+00   -81.926   -82.152    -0.227     29.49
O(0)          0.000e+00
   O2              0.000e+00   0.000e+00   -73.665   -73.597     0.068     29.73

------------------------------Saturation indices-------------------------------

	Phase               SI   log IAP   log K(298 K, 526 atm)

	CH4(g)            1.34     -1.03   -2.37  CH4	 Pressure 195.1 atm, phi 0.667.
	CO2(g)            1.13     -0.19   -1.32  CO2	 Pressure 137.5 atm, phi 0.266.
	H2(g)            -6.54     -9.65   -3.10  H2
	H2O(g)           -1.35     -0.02    1.34  H2O	 Pressure   0.2 atm, phi 0.200.
	N2(g)             2.39     -1.06   -3.45  N2	 Pressure 192.9 atm, phi 1.273.
	NH3(g)           -5.34     -3.68    1.66  NH3
	O2(g)           -70.38    -73.60   -3.22  O2


Reaction step 2.

Using solution 1.	
Using gas phase 6.	
Using reaction 1.	

Reaction 1.	

	  4.000e+00 moles of the following reaction have been added:

	                 Relative
	Reactant            moles

	CO2                  1.00000

	                 Relative
	Element             moles
	C                    1.00000
	O                    2.00000

-----------------------------------Gas phase-----------------------------------

Total pressure: 735.26      atmospheres          (Peng-Robinson calculation)
    Gas volume:   1.00e+00 liters
  Molar volume:   4.38e-02 liters/mole
   P * Vm / RT:  1.31750  (Compressibility Factor Z) 

                                                        Moles in gas
                                            ----------------------------------
Component         log P           P    phi     Initial       Final       Delta

CH4(g)             2.36   2.283e+02  0.735   7.147e+00   7.081e+00  -6.549e-02
CO2(g)             2.45   2.819e+02  0.239   5.039e+00   8.747e+00   3.707e+00
H2O(g)            -0.38   4.183e-01  0.121   8.098e-03   1.298e-02   4.880e-03
N2(g)              2.35   2.246e+02  1.575   7.068e+00   6.969e+00  -9.942e-02

-----------------------------Solution composition------------------------------

	Elements           Molality       Moles

	C                 1.695e+00   1.648e+00
	N                 1.043e+00   1.015e+00

----------------------------Description of solution----------------------------

                                       pH  =   5.928      Charge balance
                                       pe  =  -2.808      Adjusted to redox equilibrium
       Specific Conductance (uS/cm, 25 oC) = 26868
                          Density (g/cm3)  =   1.05965
                        Activity of water  =   0.955
                           Ionic strength  =   8.834e-01
                       Mass of water (kg)  =   9.727e-01
                 Total alkalinity (eq/kg)  =   8.833e-01
                       Total CO2 (mol/kg)  =   1.620e+00
                      Temperature (deg C)  =  25.00
                           Pressure (atm)  = 735.26
                  Electrical balance (eq)  =   1.677e-10
 Percent error, 100*(Cat-|An|)/(Cat+|An|)  =   0.00
                               Iterations  =  82
                                  Total H  = 1.125661e+02
                                  Total O  = 5.800021e+01

----------------------------Distribution of species----------------------------

                                               Log       Log       Log    mole V
   Species          Molality    Activity  Molality  Activity     Gamma   cm3/mol

   H+              1.565e-06   1.180e-06    -5.806    -5.928    -0.123      0.00
   OH-             2.274e-08   1.361e-08    -7.643    -7.866    -0.223      0.27
   H2O             5.551e+01   9.548e-01     1.744    -0.020     0.000     17.52
C(-4)         7.475e-02
   CH4             7.475e-02   9.161e-02    -1.126    -1.038     0.088     32.22
C(4)          1.620e+00
   HCO3-           8.827e-01   5.915e-01    -0.054    -0.228    -0.174     29.22
   CO2             7.370e-01   9.033e-01    -0.133    -0.044     0.088     31.63
   CO3-2           2.506e-04   5.053e-05    -3.601    -4.296    -0.695      3.73
H(0)          2.841e-10
   H2              1.421e-10   1.741e-10    -9.848    -9.759     0.088     28.33
N(-3)         8.833e-01
   NH4+            8.832e-01   4.835e-01    -0.054    -0.316    -0.262     19.25
   NH3             1.614e-04   1.978e-04    -3.792    -3.704     0.088     24.79
N(0)          1.600e-01
   N2              7.999e-02   9.803e-02    -1.097    -1.009     0.088     29.29
N(3)          0.000e+00
   NO2-            0.000e+00   0.000e+00   -59.671   -59.912    -0.241     25.59
N(5)          0.000e+00
   NO3-            0.000e+00   0.000e+00   -81.842   -82.083    -0.241     29.37
O(0)          0.000e+00
   O2              0.000e+00   0.000e+00   -73.657   -73.568     0.088     29.52

------------------------------Saturation indices-------------------------------

	Phase               SI   log IAP   log K(298 K, 735 atm)

	CH4(g)            1.17     -1.04   -2.21  CH4	 Pressure 228.3 atm, phi 0.735.
	CO2(g)            1.24     -0.04   -1.28  CO2	 Pressure 281.9 atm, phi 0.239.
	H2(g)            -6.66     -9.76   -3.10  H2
	H2O(g)           -1.29     -0.02    1.27  H2O	 Pressure   0.4 atm, phi 0.121.
	N2(g)             2.55     -1.01   -3.56  N2	 Pressure 224.6 atm, phi 1.575.
	NH3(g)           -5.31     -3.70    1.61  NH3
	O2(g)           -70.22    -73.57   -3.35  O2


Reaction step 3.

Using solution 1.	
Using gas phase 6.	
Using reaction 1.	

Reaction 1.	

	  2.000e+00 moles of the following reaction have been added:

	                 Relative
	Reactant            moles

	CO2                  1.00000

	                 Relative
	Element             moles
	C                    1.00000
	O                    2.00000

-----------------------------------Gas phase-----------------------------------

Total pressure: 904.22      atmospheres          (Peng-Robinson calculation)
    Gas volume:   1.00e+00 liters
  Molar volume:   4.07e-02 liters/mole
   P * Vm / RT:  1.50508  (Compressibility Factor Z) 

                                                        Moles in gas
                                            ----------------------------------
Component         log P           P    phi     Initial       Final       Delta

CH4(g)             2.41   2.590e+02  0.822   7.081e+00   7.033e+00  -4.838e-02
CO2(g)             2.59   3.906e+02  0.242   8.747e+00   1.061e+01   1.861e+00
H2O(g)            -0.24   5.728e-01  0.099   1.298e-02   1.556e-02   2.578e-03
N2(g)              2.40   2.540e+02  1.843   6.969e+00   6.899e+00  -6.982e-02

-----------------------------Solution composition------------------------------

	Elements           Molality       Moles

	C                 1.895e+00   1.835e+00
	N                 1.192e+00   1.154e+00

----------------------------Description of solution----------------------------

                                       pH  =   5.893      Charge balance
                                       pe  =  -2.779      Adjusted to redox equilibrium
       Specific Conductance (uS/cm, 25 oC) = 30029
                          Density (g/cm3)  =   1.06915
                        Activity of water  =   0.949
                           Ionic strength  =   1.025e+00
                       Mass of water (kg)  =   9.684e-01
                 Total alkalinity (eq/kg)  =   1.025e+00
                       Total CO2 (mol/kg)  =   1.822e+00
                      Temperature (deg C)  =  25.00
                           Pressure (atm)  = 904.22
                  Electrical balance (eq)  =   4.066e-10
 Percent error, 100*(Cat-|An|)/(Cat+|An|)  =   0.00
                               Iterations  =  26
                                  Total H  = 1.127545e+02
                                  Total O  = 5.827494e+01

----------------------------Distribution of species----------------------------

                                               Log       Log       Log    mole V
   Species          Molality    Activity  Molality  Activity     Gamma   cm3/mol

   H+              1.703e-06   1.280e-06    -5.769    -5.893    -0.124      0.00
   OH-             2.315e-08   1.366e-08    -7.635    -7.865    -0.229      0.93
   H2O             5.551e+01   9.489e-01     1.744    -0.023     0.000     17.41
C(-4)         7.347e-02
   CH4             7.347e-02   9.302e-02    -1.134    -1.031     0.102     32.22
C(4)          1.822e+00
   HCO3-           1.024e+00   6.805e-01     0.010    -0.167    -0.177     29.92
   CO2             7.975e-01   1.010e+00    -0.098     0.004     0.102     31.86
   CO3-2           3.240e-04   6.324e-05    -3.489    -4.199    -0.710      4.72
H(0)          2.335e-10
   H2              1.167e-10   1.478e-10    -9.933    -9.830     0.102     28.28
N(-3)         1.025e+00
   NH4+            1.025e+00   5.493e-01     0.011    -0.260    -0.271     19.42
   NH3             1.580e-04   2.000e-04    -3.801    -3.699     0.102     24.87
N(0)          1.674e-01
   N2              8.368e-02   1.060e-01    -1.077    -0.975     0.102     29.29
N(3)          0.000e+00
   NO2-            0.000e+00   0.000e+00   -59.639   -59.887    -0.248     25.62
N(5)          0.000e+00
   NO3-            0.000e+00   0.000e+00   -81.784   -82.033    -0.248     29.26
O(0)          0.000e+00
   O2              0.000e+00   0.000e+00   -73.687   -73.584     0.102     29.37

------------------------------Saturation indices-------------------------------

	Phase               SI   log IAP   log K(298 K, 904 atm)

	CH4(g)            1.05     -1.03   -2.08  CH4	 Pressure 259.0 atm, phi 0.822.
	CO2(g)            1.26      0.00   -1.26  CO2	 Pressure 390.6 atm, phi 0.242.
	H2(g)            -6.73     -9.83   -3.10  H2
	H2O(g)           -1.25     -0.02    1.22  H2O	 Pressure   0.6 atm, phi 0.099.
	N2(g)             2.67     -0.97   -3.65  N2	 Pressure 254.0 atm, phi 1.843.
	NH3(g)           -5.26     -3.70    1.56  NH3
	O2(g)           -70.13    -73.58   -3.45  O2


------------------
End of simulation.
------------------

------------------------------------
Reading input data for simulation 2.
------------------------------------

------------------------------
End of Run after 0.07 Seconds.
------------------------------

