   Input file: gas_fix_V
  Output file: gas_fix_V.out
Database file: ../database/phreeqc.dat

------------------
Reading data base.
------------------

	SOLUTION_MASTER_SPECIES
	SOLUTION_SPECIES
	PHASES
	EXCHANGE_MASTER_SPECIES
	EXCHANGE_SPECIES
	SURFACE_MASTER_SPECIES
	SURFACE_SPECIES
	RATES
	END
------------------------------------
Reading input data for simulation 1.
------------------------------------

	DATABASE ../database/phreeqc.dat
	SOLUTION 1
	GAS_PHASE 6
	    fixed_volume
	    N2(g) 200
	    CO2(g) 0
	    H2O(g) 0
	    CH4(g) 200
	REACTION
	 CO2 1
	 6 4 2
	INCREMENTAL_REACTIONS true
	END
-------------------------------------------
Beginning of initial solution calculations.
-------------------------------------------

Initial solution 1.	

-----------------------------Solution composition------------------------------

	Elements           Molality       Moles

	Pure water     

----------------------------Description of solution----------------------------

                                       pH  =   7.000    
                                       pe  =   4.000    
       Specific Conductance (uS/cm, 25 oC) = 0
                          Density (g/cm3)  =   0.99704
                        Activity of water  =   1.000
                           Ionic strength  =   1.002e-07
                       Mass of water (kg)  =   1.000e+00
                 Total alkalinity (eq/kg)  =   2.208e-10
                    Total carbon (mol/kg)  =   0.000e+00
                       Total CO2 (mol/kg)  =   0.000e+00
                      Temperature (deg C)  =  25.00
                  Electrical balance (eq)  =  -2.208e-10
 Percent error, 100*(Cat-|An|)/(Cat+|An|)  =  -0.11
                               Iterations  =   0
                                  Total H  = 1.110124e+02
                                  Total O  = 5.550622e+01

----------------------------Distribution of species----------------------------

                                               Log       Log       Log    mole V
   Species          Molality    Activity  Molality  Activity     Gamma   cm3/mol

   OH-             1.003e-07   1.002e-07    -6.999    -6.999    -0.000     -4.11
   H+              1.001e-07   1.000e-07    -7.000    -7.000    -0.000      0.00
   H2O             5.551e+01   1.000e+00     1.744     0.000     0.000     18.07
H(0)          1.416e-25
   H2              7.079e-26   7.079e-26   -25.150   -25.150     0.000     28.61
O(0)          0.000e+00
   O2              0.000e+00   0.000e+00   -42.080   -42.080     0.000     30.40

------------------------------Saturation indices-------------------------------

	Phase               SI   log IAP   log K(298 K,   1 atm)

	H2(g)           -22.05    -25.15   -3.10  H2
	H2O(g)           -1.50      0.00    1.50  H2O
	O2(g)           -39.19    -42.08   -2.89  O2


-----------------------------------------
Beginning of batch-reaction calculations.
-----------------------------------------

Reaction step 1.

WARNING: Numerical method failed, switching to numerical derivatives.
WARNING: Maximum iterations exceeded, 100

WARNING: Numerical method failed with this set of convergence parameters.

WARNING: Trying smaller step size, pe step size 10, 5 ... 

Using solution 1.	
Using gas phase 6.	
Using reaction 1.	

Reaction 1.	

	  6.000e+00 moles of the following reaction have been added:

	                 Relative
	Reactant            moles

	CO2                  1.00000

	                 Relative
	Element             moles
	C                    1.00000
	O                    2.00000

-----------------------------------Gas phase-----------------------------------

Total pressure: 524.73      atmospheres          (Peng-Robinson calculation)
    Gas volume:   1.00e+00 liters
  Molar volume:   5.20e-02 liters/mole
   P * Vm / RT:  1.11436  (Compressibility Factor Z) 

                                                        Moles in gas
                                            ----------------------------------
Component         log P           P    phi     Initial       Final       Delta

CH4(g)             2.29   1.947e+02  0.667   7.476e+00   7.141e+00  -3.349e-01
CO2(g)             2.14   1.373e+02  0.266   0.000e+00   5.036e+00   5.036e+00
H2O(g)            -0.66   2.206e-01  0.200   0.000e+00   8.091e-03   8.091e-03
N2(g)              2.28   1.925e+02  1.272   7.476e+00   7.061e+00  -4.154e-01

-----------------------------Solution composition------------------------------

	Elements           Molality       Moles

	C                 1.328e+00   1.299e+00
	N                 8.492e-01   8.307e-01

----------------------------Description of solution----------------------------

                                       pH  =   6.049      Charge balance
                                       pe  =  -2.934      Adjusted to redox equilibrium
       Specific Conductance (uS/cm, 25 oC) = 22470
                          Density (g/cm3)  =   1.04774
                        Activity of water  =   0.964
                           Ionic strength  =   7.007e-01
                       Mass of water (kg)  =   9.783e-01
                 Total alkalinity (eq/kg)  =   7.006e-01
                       Total CO2 (mol/kg)  =   1.249e+00
                      Temperature (deg C)  =  25.00
                           Pressure (atm)  = 524.73
                  Electrical balance (eq)  =  -2.386e-10
 Percent error, 100*(Cat-|An|)/(Cat+|An|)  =  -0.00
                               Iterations  =  84
                                  Total H  = 1.123357e+02
                                  Total O  = 5.742693e+01

----------------------------Distribution of species----------------------------

                                               Log       Log       Log    mole V
   Species          Molality    Activity  Molality  Activity     Gamma   cm3/mol

   H+              1.179e-06   8.943e-07    -5.929    -6.049    -0.120      0.00
   OH-             2.606e-08   1.598e-08    -7.584    -7.796    -0.212     -0.62
   H2O             5.551e+01   9.642e-01     1.744    -0.016     0.000     17.67
C(-4)         7.958e-02
   CH4             7.958e-02   9.351e-02    -1.099    -1.029     0.070     32.22
C(4)          1.249e+00
   HCO3-           7.000e-01   4.758e-01    -0.155    -0.323    -0.168     28.27
   CO2             5.483e-01   6.443e-01    -0.261    -0.191     0.070     30.77
   CO3-2           2.037e-04   4.347e-05    -3.691    -4.362    -0.671      2.33
H(0)          3.868e-10
   H2              1.934e-10   2.272e-10    -9.714    -9.644     0.070     28.39
N(-3)         7.006e-01
   NH4+            7.004e-01   3.967e-01    -0.155    -0.402    -0.247     16.39
   NH3             1.801e-04   2.117e-04    -3.744    -3.674     0.070     24.67
N(0)          1.486e-01
   N2              7.428e-02   8.728e-02    -1.129    -1.059     0.070     29.29
N(3)          0.000e+00
   NO2-            0.000e+00   0.000e+00   -59.683   -59.911    -0.228     25.55
N(5)          0.000e+00
   NO3-            0.000e+00   0.000e+00   -81.912   -82.140    -0.228     29.50
O(0)          0.000e+00
   O2              0.000e+00   0.000e+00   -73.671   -73.600     0.070     29.74

------------------------------Saturation indices-------------------------------

	Phase               SI   log IAP   log K(298 K, 525 atm)

	CH4(g)            1.34     -1.03   -2.37  CH4	 Pressure 194.7 atm, phi 0.667.
	CO2(g)            1.13     -0.19   -1.33  CO2	 Pressure 137.3 atm, phi 0.266.
	H2(g)            -6.54     -9.64   -3.10  H2
	H2O(g)           -1.35     -0.02    1.34  H2O	 Pressure   0.2 atm, phi 0.200.
	N2(g)             2.39     -1.06   -3.45  N2	 Pressure 192.5 atm, phi 1.272.
	NH3(g)           -5.33     -3.67    1.66  NH3
	O2(g)           -70.38    -73.60   -3.22  O2


Reaction step 2.

Using solution 1.	
Using gas phase 6.	
Using reaction 1.	

Reaction 1.	

	  4.000e+00 moles of the following reaction have been added:

	                 Relative
	Reactant            moles

	CO2                  1.00000

	                 Relative
	Element             moles
	C                    1.00000
	O                    2.00000

-----------------------------------Gas phase-----------------------------------

Total pressure: 734.20      atmospheres          (Peng-Robinson calculation)
    Gas volume:   1.00e+00 liters
  Molar volume:   4.39e-02 liters/mole
   P * Vm / RT:  1.31588  (Compressibility Factor Z) 

                                                        Moles in gas
                                            ----------------------------------
Component         log P           P    phi     Initial       Final       Delta

CH4(g)             2.36   2.276e+02  0.735   7.141e+00   7.071e+00  -7.053e-02
CO2(g)             2.45   2.822e+02  0.239   5.036e+00   8.766e+00   3.731e+00
H2O(g)            -0.38   4.189e-01  0.121   8.091e-03   1.301e-02   4.921e-03
N2(g)              2.35   2.239e+02  1.575   7.061e+00   6.955e+00  -1.062e-01

-----------------------------Solution composition------------------------------

	Elements           Molality       Moles

	C                 1.687e+00   1.639e+00
	N                 1.073e+00   1.043e+00

----------------------------Description of solution----------------------------

                                       pH  =   5.951      Charge balance
                                       pe  =  -2.832      Adjusted to redox equilibrium
       Specific Conductance (uS/cm, 25 oC) = 27576
                          Density (g/cm3)  =   1.06175
                        Activity of water  =   0.954
                           Ionic strength  =   9.151e-01
                       Mass of water (kg)  =   9.717e-01
                 Total alkalinity (eq/kg)  =   9.150e-01
                       Total CO2 (mol/kg)  =   1.613e+00
                      Temperature (deg C)  =  25.00
                           Pressure (atm)  = 734.20
                  Electrical balance (eq)  =  -1.965e-10
 Percent error, 100*(Cat-|An|)/(Cat+|An|)  =  -0.00
                               Iterations  =  22
                                  Total H  = 1.126080e+02
                                  Total O  = 5.796074e+01

----------------------------Distribution of species----------------------------

                                               Log       Log       Log    mole V
   Species          Molality    Activity  Molality  Activity     Gamma   cm3/mol

   H+              1.487e-06   1.119e-06    -5.828    -5.951    -0.123      0.00
   OH-             2.400e-08   1.430e-08    -7.620    -7.845    -0.225      0.33
   H2O             5.551e+01   9.544e-01     1.744    -0.020     0.000     17.52
C(-4)         7.408e-02
   CH4             7.408e-02   9.145e-02    -1.130    -1.039     0.092     32.22
C(4)          1.613e+00
   HCO3-           9.143e-01   6.110e-01    -0.039    -0.214    -0.175     29.30
   CO2             6.982e-01   8.620e-01    -0.156    -0.064     0.092     32.65
   CO3-2           2.756e-04   5.499e-05    -3.560    -4.260    -0.700      3.79
H(0)          2.833e-10
   H2              1.416e-10   1.748e-10    -9.849    -9.757     0.092     28.33
N(-3)         9.150e-01
   NH4+            9.148e-01   4.978e-01    -0.039    -0.303    -0.264     16.65
   NH3             1.609e-04   1.986e-04    -3.793    -3.702     0.092     24.79
N(0)          1.585e-01
   N2              7.925e-02   9.783e-02    -1.101    -1.010     0.092     29.29
N(3)          0.000e+00
   NO2-            0.000e+00   0.000e+00   -59.650   -59.893    -0.243     25.60
N(5)          0.000e+00
   NO3-            0.000e+00   0.000e+00   -81.823   -82.065    -0.243     29.38
O(0)          0.000e+00
   O2              0.000e+00   0.000e+00   -73.663   -73.571     0.092     29.52

------------------------------Saturation indices-------------------------------

	Phase               SI   log IAP   log K(298 K, 734 atm)

	CH4(g)            1.17     -1.04   -2.21  CH4	 Pressure 227.6 atm, phi 0.735.
	CO2(g)            1.22     -0.06   -1.29  CO2	 Pressure 282.2 atm, phi 0.239.
	H2(g)            -6.66     -9.76   -3.10  H2
	H2O(g)           -1.30     -0.02    1.27  H2O	 Pressure   0.4 atm, phi 0.121.
	N2(g)             2.55     -1.01   -3.56  N2	 Pressure 223.9 atm, phi 1.575.
	NH3(g)           -5.31     -3.70    1.61  NH3
	O2(g)           -70.22    -73.57   -3.35  O2


Reaction step 3.

Using solution 1.	
Using gas phase 6.	
Using reaction 1.	

Reaction 1.	

	  2.000e+00 moles of the following reaction have been added:

	                 Relative
	Reactant            moles

	CO2                  1.00000

	                 Relative
	Element             moles
	C                    1.00000
	O                    2.00000

-----------------------------------Gas phase-----------------------------------

Total pressure: 904.80      atmospheres          (Peng-Robinson calculation)
    Gas volume:   1.00e+00 liters
  Molar volume:   4.07e-02 liters/mole
   P * Vm / RT:  1.50521  (Compressibility Factor Z) 

                                                        Moles in gas
                                            ----------------------------------
Component         log P           P    phi     Initial       Final       Delta

CH4(g)             2.41   2.584e+02  0.822   7.071e+00   7.017e+00  -5.355e-02
CO2(g)             2.59   3.925e+02  0.242   8.766e+00   1.066e+01   1.892e+00
H2O(g)            -0.24   5.763e-01  0.098   1.301e-02   1.565e-02   2.638e-03
N2(g)              2.40   2.533e+02  1.846   6.955e+00   6.878e+00  -7.677e-02

-----------------------------Solution composition------------------------------

	Elements           Molality       Moles

	C                 1.862e+00   1.801e+00
	N                 1.237e+00   1.197e+00

----------------------------Description of solution----------------------------

                                       pH  =   5.919      Charge balance
                                       pe  =  -2.807      Adjusted to redox equilibrium
       Specific Conductance (uS/cm, 25 oC) = 31019
                          Density (g/cm3)  =   1.07083
                        Activity of water  =   0.949
                           Ionic strength  =   1.072e+00
                       Mass of water (kg)  =   9.670e-01
                 Total alkalinity (eq/kg)  =   1.072e+00
                       Total CO2 (mol/kg)  =   1.790e+00
                      Temperature (deg C)  =  25.00
                           Pressure (atm)  = 904.80
                  Electrical balance (eq)  =   3.047e-10
 Percent error, 100*(Cat-|An|)/(Cat+|An|)  =   0.00
                               Iterations  =  26
                                  Total H  = 1.128169e+02
                                  Total O  = 5.817449e+01

----------------------------Distribution of species----------------------------

                                               Log       Log       Log    mole V
   Species          Molality    Activity  Molality  Activity     Gamma   cm3/mol

   H+              1.605e-06   1.204e-06    -5.795    -5.919    -0.125      0.00
   OH-             2.466e-08   1.447e-08    -7.608    -7.840    -0.232      1.02
   H2O             5.551e+01   9.487e-01     1.744    -0.023     0.000     17.41
C(-4)         7.251e-02
   CH4             7.251e-02   9.282e-02    -1.140    -1.032     0.107     32.22
C(4)          1.790e+00
   HCO3-           1.071e+00   7.097e-01     0.030    -0.149    -0.179     30.04
   CO2             7.181e-01   9.192e-01    -0.144    -0.037     0.107     34.01
   CO3-2           3.647e-04   7.024e-05    -3.438    -4.153    -0.715      4.80
H(0)          2.315e-10
   H2              1.158e-10   1.482e-10    -9.936    -9.829     0.107     28.28
N(-3)         1.072e+00
   NH4+            1.072e+00   5.703e-01     0.030    -0.244    -0.274     16.85
   NH3             1.568e-04   2.008e-04    -3.805    -3.697     0.107     24.87
N(0)          1.652e-01
   N2              8.262e-02   1.058e-01    -1.083    -0.976     0.107     29.29
N(3)          0.000e+00
   NO2-            0.000e+00   0.000e+00   -59.613   -59.864    -0.251     25.63
N(5)          0.000e+00
   NO3-            0.000e+00   0.000e+00   -81.759   -82.010    -0.251     29.28
O(0)          0.000e+00
   O2              0.000e+00   0.000e+00   -73.695   -73.587     0.107     29.37

------------------------------Saturation indices-------------------------------

	Phase               SI   log IAP   log K(298 K, 905 atm)

	CH4(g)            1.05     -1.03   -2.08  CH4	 Pressure 258.4 atm, phi 0.822.
	CO2(g)            1.23     -0.04   -1.27  CO2	 Pressure 392.5 atm, phi 0.242.
	H2(g)            -6.73     -9.83   -3.10  H2
	H2O(g)           -1.25     -0.02    1.22  H2O	 Pressure   0.6 atm, phi 0.098.
	N2(g)             2.67     -0.98   -3.65  N2	 Pressure 253.3 atm, phi 1.846.
	NH3(g)           -5.26     -3.70    1.56  NH3
	O2(g)           -70.14    -73.59   -3.45  O2


------------------
End of simulation.
------------------

------------------------------------
Reading input data for simulation 2.
------------------------------------

-----------
End of run.
-----------

