   Input file: gas_fix_P
  Output file: gas_fix_P.out
Database file: ../database/phreeqc.dat

------------------
Reading data base.
------------------

	SOLUTION_MASTER_SPECIES
	SOLUTION_SPECIES
	PHASES
	EXCHANGE_MASTER_SPECIES
	EXCHANGE_SPECIES
	SURFACE_MASTER_SPECIES
	SURFACE_SPECIES
	RATES
	END
------------------------------------
Reading input data for simulation 1.
------------------------------------

	DATABASE ../database/phreeqc.dat
	SOLUTION 1
	  pH 3 charge
	GAS_PHASE 1
	    fixed_pressure
	    pressure 950.9
	    N2(g) 11
	    CO2(g) 470
	    H2O(g) 0.0
	REACTION
	 CO2 1
	 2*2
	INCREMENTAL_REACTIONS true
	END
-------------------------------------------
Beginning of initial solution calculations.
-------------------------------------------

Initial solution 1.	

-----------------------------Solution composition------------------------------

	Elements           Molality       Moles

	Pure water     

----------------------------Description of solution----------------------------

                                       pH  =   6.997      Charge balance
                                       pe  =   4.000    
       Specific Conductance (uS/cm, 25 oC) = 0
                          Density (g/cm3)  =   0.99704
                               Volume (L)  =   1.00297
                        Activity of water  =   1.000
                           Ionic strength  =   1.006e-07
                       Mass of water (kg)  =   1.000e+00
                 Total alkalinity (eq/kg)  =   6.128e-16
                    Total carbon (mol/kg)  =   0.000e+00
                       Total CO2 (mol/kg)  =   0.000e+00
                      Temperature (deg C)  =  25.00
                  Electrical balance (eq)  =  -6.128e-16
 Percent error, 100*(Cat-|An|)/(Cat+|An|)  =  -0.00
                               Iterations  =  12
                                  Total H  = 1.110124e+02
                                  Total O  = 5.550622e+01

----------------------------Distribution of species----------------------------

                                               Log       Log       Log    mole V
   Species          Molality    Activity  Molality  Activity     Gamma   cm3/mol

   OH-             1.006e-07   1.006e-07    -6.997    -6.997    -0.000     -4.14
   H+              1.006e-07   1.006e-07    -6.997    -6.997    -0.000      0.00
   H2O             5.551e+01   1.000e+00     1.744    -0.000     0.000     18.07
H(0)          1.433e-25
   H2              7.166e-26   7.166e-26   -25.145   -25.145     0.000     28.61
O(0)          0.000e+00
   O2              0.000e+00   0.000e+00   -42.090   -42.090     0.000     30.40

------------------------------Saturation indices-------------------------------

	Phase               SI   log IAP   log K(298 K,   1 atm)

	H2(g)           -22.04    -25.14   -3.10  H2
	H2O(g)           -1.50     -0.00    1.50  H2O
	O2(g)           -39.20    -42.09   -2.89  O2


-----------------------------------------
Beginning of batch-reaction calculations.
-----------------------------------------

Reaction step 1.

Using solution 1.	
Using gas phase 1.	
Using reaction 1.	

Reaction 1.	

	  2.000e+00 moles of the following reaction have been added:

	                 Relative
	Reactant            moles

	CO2                  1.00000

	                 Relative
	Element             moles
	C                    1.00000
	O                    2.00000

-----------------------------------Gas phase-----------------------------------

Total pressure: 481.00      atmospheres          (Peng-Robinson calculation)
    Gas volume:   1.01e+00 liters
  Molar volume:   4.08e-02 liters/mole
   P * Vm / RT:  0.80166  (Compressibility Factor Z) 

                                                        Moles in gas
                                            ----------------------------------
Component         log P           P    phi     Initial       Final       Delta

CO2(g)             2.67   4.685e+02  0.195   2.390e+01   2.418e+01   2.823e-01
H2O(g)             0.27   1.883e+00  0.023   0.000e+00   9.717e-02   9.717e-02
N2(g)              1.03   1.063e+01  2.729   5.593e-01   5.485e-01  -1.087e-02

-----------------------------Solution composition------------------------------

	Elements           Molality       Moles

	C                 1.721e+00   1.718e+00
	N                 2.178e-02   2.174e-02

----------------------------Description of solution----------------------------

                                       pH  =   2.963      Charge balance
                                       pe  =   6.057      Adjusted to redox equilibrium
       Specific Conductance (uS/cm, 25 oC) = 435
                          Density (g/cm3)  =   1.03824
                               Volume (L)  =   1.11567
                        Activity of water  =   0.971
                           Ionic strength  =   1.129e-03
                       Mass of water (kg)  =   9.982e-01
                 Total alkalinity (eq/kg)  =  -1.712e-15
                       Total CO2 (mol/kg)  =   1.721e+00
                      Temperature (deg C)  =  25.00
                           Pressure (atm)  = 481.00
                  Electrical balance (eq)  =   2.035e-15
 Percent error, 100*(Cat-|An|)/(Cat+|An|)  =   0.00
                               Iterations  =  72
                                  Total H  = 1.108181e+02
                                  Total O  = 5.884446e+01

----------------------------Distribution of species----------------------------

                                               Log       Log       Log    mole V
   Species          Molality    Activity  Molality  Activity     Gamma   cm3/mol

   H+              1.129e-03   1.090e-03    -2.947    -2.963    -0.015      0.00
   OH-             1.392e-11   1.341e-11   -10.857   -10.873    -0.016     -2.55
   H2O             5.551e+01   9.705e-01     1.744    -0.013     0.000     17.70
C(-4)         0.000e+00
   CH4             0.000e+00   0.000e+00   -47.819   -47.819     0.000     32.22
C(4)          1.721e+00
   CO2             1.720e+00   1.720e+00     0.235     0.236     0.000     31.23
   HCO3-           1.129e-03   1.089e-03    -2.947    -2.963    -0.016     25.04
   CO3-2           9.008e-11   7.787e-11   -10.045   -10.109    -0.063     -0.87
H(0)          7.390e-22
   H2              3.695e-22   3.696e-22   -21.432   -21.432     0.000     28.41
N(-3)         3.269e-16
   NH4+            3.269e-16   3.148e-16   -15.486   -15.502    -0.016     18.70
   NH3             1.461e-22   1.461e-22   -21.835   -21.835     0.000     24.78
N(0)          2.178e-02
   N2              1.089e-02   1.089e-02    -1.963    -1.963     0.000     29.29
N(3)          0.000e+00
   NO2-            0.000e+00   0.000e+00   -45.724   -45.740    -0.016     24.89
N(5)          0.000e+00
   NO3-            0.000e+00   0.000e+00   -56.151   -56.168    -0.016     29.04
O(0)          0.000e+00
   O2              0.000e+00   0.000e+00   -49.978   -49.978     0.000     29.78

------------------------------Saturation indices-------------------------------

	Phase               SI   log IAP   log K(298 K, 481 atm)

	CH4(g)          -45.44    -47.82   -2.38  CH4
	CO2(g)            1.54      0.24   -1.30  CO2	 Pressure 468.5 atm, phi 0.195.
	H2(g)           -18.33    -21.43   -3.10  H2
	H2O(g)           -1.37     -0.01    1.35  H2O	 Pressure   1.9 atm, phi 0.023.
	N2(g)             1.46     -1.96   -3.43  N2	 Pressure  10.6 atm, phi 2.729.
	NH3(g)          -23.51    -21.84    1.67  NH3
	O2(g)           -46.78    -49.98   -3.19  O2


Reaction step 2.

Using solution 1.	
Using gas phase 1.	
Using reaction 1.	

Reaction 1.	

	  2.000e+00 moles of the following reaction have been added:

	                 Relative
	Reactant            moles

	CO2                  1.00000

	                 Relative
	Element             moles
	C                    1.00000
	O                    2.00000

-----------------------------------Gas phase-----------------------------------

Total pressure: 481.00      atmospheres          (Peng-Robinson calculation)
    Gas volume:   1.09e+00 liters
  Molar volume:   4.08e-02 liters/mole
   P * Vm / RT:  0.80118  (Compressibility Factor Z) 

                                                        Moles in gas
                                            ----------------------------------
Component         log P           P    phi     Initial       Final       Delta

CO2(g)             2.67   4.693e+02  0.195   2.418e+01   2.618e+01   1.998e+00
H2O(g)             0.28   1.893e+00  0.023   9.717e-02   1.056e-01   8.420e-03
N2(g)              0.99   9.845e+00  2.738   5.485e-01   5.492e-01   7.675e-04

-----------------------------Solution composition------------------------------

	Elements           Molality       Moles

	C                 1.723e+00   1.720e+00
	N                 2.024e-02   2.021e-02

----------------------------Description of solution----------------------------

                                       pH  =   2.962      Charge balance
                                       pe  =  14.410      Adjusted to redox equilibrium
       Specific Conductance (uS/cm, 25 oC) = 435
                          Density (g/cm3)  =   1.03827
                               Volume (L)  =   1.11569
                        Activity of water  =   0.971
                           Ionic strength  =   1.130e-03
                       Mass of water (kg)  =   9.981e-01
                 Total alkalinity (eq/kg)  =  -4.474e-15
                       Total CO2 (mol/kg)  =   1.723e+00
                      Temperature (deg C)  =  25.00
                           Pressure (atm)  = 481.00
                  Electrical balance (eq)  =   5.586e-16
 Percent error, 100*(Cat-|An|)/(Cat+|An|)  =   0.00
                               Iterations  =  18
                                  Total H  = 1.108012e+02
                                  Total O  = 5.884099e+01

----------------------------Distribution of species----------------------------

                                               Log       Log       Log    mole V
   Species          Molality    Activity  Molality  Activity     Gamma   cm3/mol

   H+              1.130e-03   1.091e-03    -2.947    -2.962    -0.015      0.00
   OH-             1.390e-11   1.340e-11   -10.857   -10.873    -0.016     -2.55
   H2O             5.551e+01   9.705e-01     1.744    -0.013     0.000     17.70
C(-4)         0.000e+00
   CH4             0.000e+00   0.000e+00  -114.635  -114.635     0.000     32.22
C(4)          1.723e+00
   CO2             1.722e+00   1.723e+00     0.236     0.236     0.000     31.23
   HCO3-           1.130e-03   1.089e-03    -2.947    -2.963    -0.016     25.04
   CO3-2           9.009e-11   7.787e-11   -10.045   -10.109    -0.063     -0.87
H(0)          1.461e-38
   H2              7.304e-39   7.306e-39   -38.136   -38.136     0.000     28.41
N(-3)         0.000e+00
   NH4+            0.000e+00   0.000e+00   -40.557   -40.574    -0.016     18.70
   NH3             0.000e+00   0.000e+00   -46.907   -46.907     0.000     24.78
N(0)          2.024e-02
   N2              1.012e-02   1.012e-02    -1.995    -1.995     0.000     29.29
N(3)          2.069e-21
   NO2-            2.069e-21   1.994e-21   -20.684   -20.700    -0.016     24.89
N(5)          3.914e-15
   NO3-            3.914e-15   3.770e-15   -14.407   -14.424    -0.016     29.04
O(0)          5.386e-17
   O2              2.693e-17   2.694e-17   -16.570   -16.570     0.000     29.78

------------------------------Saturation indices-------------------------------

	Phase               SI   log IAP   log K(298 K, 481 atm)

	CH4(g)         -112.25   -114.63   -2.38  CH4
	CO2(g)            1.54      0.24   -1.30  CO2	 Pressure 469.3 atm, phi 0.195.
	H2(g)           -35.04    -38.14   -3.10  H2
	H2O(g)           -1.37     -0.01    1.35  H2O	 Pressure   1.9 atm, phi 0.023.
	N2(g)             1.43     -1.99   -3.43  N2	 Pressure   9.8 atm, phi 2.738.
	NH3(g)          -48.58    -46.91    1.67  NH3
	O2(g)           -13.38    -16.57   -3.19  O2


------------------
End of simulation.
------------------

------------------------------------
Reading input data for simulation 2.
------------------------------------

------------------------------
End of Run after 0.02 Seconds.
------------------------------

