WARNING: Database file from DATABASE keyword is used; command line argument ignored.
   Input file: gypsum_P
  Output file: gypsum_P.out
Database file: ../database/phreeqc.dat

------------------
Reading data base.
------------------

	SOLUTION_MASTER_SPECIES
	SOLUTION_SPECIES
	PHASES
	EXCHANGE_MASTER_SPECIES
	EXCHANGE_SPECIES
	SURFACE_MASTER_SPECIES
	SURFACE_SPECIES
	RATES
	END
------------------------------------
Reading input data for simulation 1.
------------------------------------

	DATABASE ../database/phreeqc.dat
	SELECTED_OUTPUT 101
	    file                 gypsum_P_101.sel
	USER_PUNCH 101
	    headings Mu SC
	    start
	10 PUNCH STR_F$(MU, 20, 12)
	20 PUNCH STR_F$(SC, 20, 10)
	    end
	SOLUTION 1
	pH 7 charge
	temp 62
	EQUILIBRIUM_PHASES
	Gypsum
	Anhydrite
	REACTION_PRESSURE
	1 1000 in 10
	USER_GRAPH
	 -headings p Ca SI_Anhydrite SI_Gypsum
	 -axis_titles "Pressure / atm" "mol/kgw" SI
	 -axis_scale sy_axis -0.1 0.04
	 10 graph_x pressure
	 20 graph_y tot("Ca")
	 30 graph_sy SI("Anhydrite"), SI("Gypsum")
	 -end
	USER_GRAPH 2 apparent log_k of CaSO4 complex
	 -headings p
	 -axis_titles "Pressure / atm" "log10 (K)"
	 -axis_scale y_axis 2 2.5
	 10 graph_x pressure
	 20 graph_y log10(act("CaSO4") / (act("Ca+2") * act("SO4-2")))
	END
-------------------------------------------
Beginning of initial solution calculations.
-------------------------------------------

Initial solution 1.	

-----------------------------Solution composition------------------------------

	Elements           Molality       Moles

	Pure water     

----------------------------Description of solution----------------------------

                                       pH  =   6.484      Charge balance
                                       pe  =   4.000    
       Specific Conductance (µS/cm, 62°C)  = 0
                          Density (g/cm³)  =   0.98215
                               Volume (L)  =   1.01818
                        Activity of water  =   1.000
                           Ionic strength  =   3.280e-07
                       Mass of water (kg)  =   1.000e+00
                 Total alkalinity (eq/kg)  =  -3.382e-16
                    Total carbon (mol/kg)  =   0.000e+00
                       Total CO2 (mol/kg)  =   0.000e+00
                         Temperature (°C)  =  62.00
                  Electrical balance (eq)  =   3.382e-16
 Percent error, 100*(Cat-|An|)/(Cat+|An|)  =   0.00
                               Iterations  =   4
                                  Total H  = 1.110124e+02
                                  Total O  = 5.550622e+01

----------------------------Distribution of species----------------------------

                                               Log       Log       Log    mole V
   Species          Molality    Activity  Molality  Activity     Gamma   cm³/mol

   H+              3.280e-07   3.278e-07    -6.484    -6.484    -0.000      0.00
   OH-             3.280e-07   3.278e-07    -6.484    -6.484    -0.000     -4.04
   H2O             5.551e+01   1.000e+00     1.744    -0.000     0.000     18.34
H(0)          1.096e-24
   H2              5.481e-25   5.481e-25   -24.261   -24.261     0.000     28.58
O(0)          1.164e-33
   O2              5.819e-34   5.819e-34   -33.235   -33.235     0.000     32.47

------------------------------Saturation indices-------------------------------

  Phase               SI** log IAP   log K(335 K,   1 atm)

  H2(g)           -21.12    -24.26   -3.14  H2
  H2O(g)           -0.67     -0.00    0.67  H2O
  O2(g)           -30.17    -33.24   -3.07  O2

**For a gas, SI = log10(fugacity). Fugacity = pressure * phi / 1 atm.
  For ideal gases, phi = 1.

-----------------------------------------
Beginning of batch-reaction calculations.
-----------------------------------------

Reaction step 1.

Using solution 1.	
Using pure phase assemblage 1.	
Using pressure 1.	

-------------------------------Phase assemblage--------------------------------

                                                      Moles in assemblage
Phase               SI  log IAP  log K(T, P)   Initial       Final       Delta

Anhydrite         0.00    -4.73     -4.73    1.000e+01   1.998e+01   9.982e+00
Gypsum           -0.07    -4.73     -4.66    1.000e+01           0  -1.000e+01

-----------------------------Solution composition------------------------------

	Elements           Molality       Moles

	Ca                1.300e-02   1.769e-02
	S                 1.300e-02   1.769e-02

----------------------------Description of solution----------------------------

                                       pH  =   6.637      Charge balance
                                       pe  =   8.146      Adjusted to redox equilibrium
       Specific Conductance (µS/cm, 62°C)  = 3580
                          Density (g/cm³)  =   0.98386
                               Volume (L)  =   1.38508
                        Activity of water  =   1.000
                           Ionic strength  =   3.526e-02
                       Mass of water (kg)  =   1.360e+00
                 Total alkalinity (eq/kg)  =  -2.513e-16
                    Total carbon (mol/kg)  =   0.000e+00
                       Total CO2 (mol/kg)  =   0.000e+00
                         Temperature (°C)  =  62.00
                  Electrical balance (eq)  =  -2.411e-15
 Percent error, 100*(Cat-|An|)/(Cat+|An|)  =  -0.00
                               Iterations  =  20
                                  Total H  = 1.510124e+02
                                  Total O  = 7.557697e+01

----------------------------Distribution of species----------------------------

                                               Log       Log       Log    mole V
   Species          Molality    Activity  Molality  Activity     Gamma   cm³/mol

   OH-             5.659e-07   4.659e-07    -6.247    -6.332    -0.084     -3.75
   H+              2.682e-07   2.305e-07    -6.572    -6.637    -0.066      0.00
   H2O             5.551e+01   9.996e-01     1.744    -0.000     0.000     18.34
Ca            1.300e-02
   Ca+2            8.816e-03   4.343e-03    -2.055    -2.362    -0.308    -17.80
   CaSO4           4.188e-03   4.222e-03    -2.378    -2.375     0.004      8.41
   CaHSO4+         1.496e-08   1.242e-08    -7.825    -7.906    -0.081     (0)  
   CaOH+           3.765e-09   3.125e-09    -8.424    -8.505    -0.081     (0)  
H(0)          2.745e-33
   H2              1.373e-33   1.384e-33   -32.862   -32.859     0.004     28.58
O(0)          1.809e-16
   O2              9.047e-17   9.120e-17   -16.044   -16.040     0.004     32.47
S(-2)         0.000e+00
   HS-             0.000e+00   0.000e+00   -98.404   -98.489    -0.084     21.28
   H2S             0.000e+00   0.000e+00   -98.519   -98.516     0.004     37.26
   S-2             0.000e+00   0.000e+00  -103.477  -103.790    -0.313     (0)  
S(6)          1.300e-02
   SO4-2           8.816e-03   4.271e-03    -2.055    -2.369    -0.315     16.78
   CaSO4           4.188e-03   4.222e-03    -2.378    -2.375     0.004      8.41
   HSO4-           2.865e-07   2.378e-07    -6.543    -6.624    -0.081     41.59
   CaHSO4+         1.496e-08   1.242e-08    -7.825    -7.906    -0.081     (0)  

------------------------------Saturation indices-------------------------------

  Phase               SI** log IAP   log K(335 K,   1 atm)

  Anhydrite         0.00     -4.73   -4.73  CaSO4
  Gypsum           -0.07     -4.73   -4.66  CaSO4:2H2O
  H2(g)           -29.72    -32.86   -3.14  H2
  H2O(g)           -0.67     -0.00    0.67  H2O
  H2S(g)          -97.19   -105.13   -7.94  H2S
  O2(g)           -12.97    -16.04   -3.07  O2
  Sulfur          -73.06    -68.95    4.11  S

**For a gas, SI = log10(fugacity). Fugacity = pressure * phi / 1 atm.
  For ideal gases, phi = 1.

Reaction step 2.

Using solution 1.	
Using pure phase assemblage 1.	
Using pressure 1.	

-------------------------------Phase assemblage--------------------------------

                                                      Moles in assemblage
Phase               SI  log IAP  log K(T, P)   Initial       Final       Delta

Anhydrite         0.00    -4.65     -4.65    1.000e+01   1.998e+01   9.980e+00
Gypsum           -0.06    -4.65     -4.60    1.000e+01           0  -1.000e+01

-----------------------------Solution composition------------------------------

	Elements           Molality       Moles

	Ca                1.483e-02   2.017e-02
	S                 1.483e-02   2.017e-02

----------------------------Description of solution----------------------------

                                       pH  =   6.618      Charge balance
                                       pe  =   8.142      Adjusted to redox equilibrium
       Specific Conductance (µS/cm, 62°C)  = 3997
                          Density (g/cm³)  =   0.98894
                               Volume (L)  =   1.37832
                        Activity of water  =   1.000
                           Ionic strength  =   3.986e-02
                       Mass of water (kg)  =   1.360e+00
                 Total alkalinity (eq/kg)  =  -2.464e-16
                    Total carbon (mol/kg)  =   0.000e+00
                       Total CO2 (mol/kg)  =   0.000e+00
                         Temperature (°C)  =  62.00
                           Pressure (atm)  = 112.00
                  Electrical balance (eq)  =   6.859e-15
 Percent error, 100*(Cat-|An|)/(Cat+|An|)  =   0.00
                               Iterations  =  24
                                  Total H  = 1.510124e+02
                                  Total O  = 7.558691e+01

----------------------------Distribution of species----------------------------

                                               Log       Log       Log    mole V
   Species          Molality    Activity  Molality  Activity     Gamma   cm³/mol

   OH-             5.969e-07   4.873e-07    -6.224    -6.312    -0.088     -4.01
   H+              2.820e-07   2.411e-07    -6.550    -6.618    -0.068      0.00
   H2O             5.551e+01   9.996e-01     1.744    -0.000     0.000     18.25
Ca            1.483e-02
   Ca+2            9.965e-03   4.774e-03    -2.002    -2.321    -0.320    -17.02
   CaSO4           4.866e-03   4.911e-03    -2.313    -2.309     0.004      8.64
   CaHSO4+         1.901e-08   1.567e-08    -7.721    -7.805    -0.084     (0)  
   CaOH+           3.987e-09   3.284e-09    -8.399    -8.484    -0.084     (0)  
H(0)          2.730e-33
   H2              1.365e-33   1.378e-33   -32.865   -32.861     0.004     28.53
O(0)          1.474e-16
   O2              7.371e-17   7.439e-17   -16.132   -16.129     0.004     32.19
S(-2)         0.000e+00
   HS-             0.000e+00   0.000e+00   -98.285   -98.373    -0.088     21.30
   H2S             0.000e+00   0.000e+00   -98.412   -98.408     0.004     37.06
   S-2             0.000e+00   0.000e+00  -103.232  -103.558    -0.326     (0)  
S(6)          1.483e-02
   SO4-2           9.964e-03   4.685e-03    -2.002    -2.329    -0.328     16.68
   CaSO4           4.866e-03   4.911e-03    -2.313    -2.309     0.004      8.64
   HSO4-           2.999e-07   2.471e-07    -6.523    -6.607    -0.084     41.30
   CaHSO4+         1.901e-08   1.567e-08    -7.721    -7.805    -0.084     (0)  

------------------------------Saturation indices-------------------------------

  Phase               SI** log IAP   log K(335 K, 112 atm)

  Anhydrite         0.00     -4.65   -4.65  CaSO4
  Gypsum           -0.06     -4.65   -4.60  CaSO4:2H2O
  H2(g)           -29.67    -32.86   -3.19  H2
  H2O(g)           -0.64     -0.00    0.64  H2O
  H2S(g)          -97.02   -104.99   -7.97  H2S
  O2(g)           -13.00    -16.13   -3.13  O2
  Sulfur          -72.94    -68.89    4.05  S

**For a gas, SI = log10(fugacity). Fugacity = pressure * phi / 1 atm.
  For ideal gases, phi = 1.

Reaction step 3.

Using solution 1.	
Using pure phase assemblage 1.	
Using pressure 1.	

-------------------------------Phase assemblage--------------------------------

                                                      Moles in assemblage
Phase               SI  log IAP  log K(T, P)   Initial       Final       Delta

Anhydrite         0.00    -4.57     -4.57    1.000e+01   1.998e+01   9.977e+00
Gypsum           -0.04    -4.57     -4.53    1.000e+01           0  -1.000e+01

-----------------------------Solution composition------------------------------

	Elements           Molality       Moles

	Ca                1.688e-02   2.296e-02
	S                 1.688e-02   2.296e-02

----------------------------Description of solution----------------------------

                                       pH  =   6.598      Charge balance
                                       pe  =   8.453      Adjusted to redox equilibrium
       Specific Conductance (µS/cm, 62°C)  = 4451
                          Density (g/cm³)  =   0.99392
                               Volume (L)  =   1.37178
                        Activity of water  =   1.000
                           Ionic strength  =   4.493e-02
                       Mass of water (kg)  =   1.360e+00
                 Total alkalinity (eq/kg)  =  -2.502e-16
                    Total carbon (mol/kg)  =   0.000e+00
                       Total CO2 (mol/kg)  =   0.000e+00
                         Temperature (°C)  =  62.00
                           Pressure (atm)  = 223.00
                  Electrical balance (eq)  =  -1.802e-13
 Percent error, 100*(Cat-|An|)/(Cat+|An|)  =  -0.00
                               Iterations  =  76
                                  Total H  = 1.510124e+02
                                  Total O  = 7.559805e+01

----------------------------Distribution of species----------------------------

                                               Log       Log       Log    mole V
   Species          Molality    Activity  Molality  Activity     Gamma   cm³/mol

   OH-             6.301e-07   5.099e-07    -6.201    -6.293    -0.092     -4.24
   H+              2.966e-07   2.524e-07    -6.528    -6.598    -0.070      0.00
   H2O             5.551e+01   9.995e-01     1.744    -0.000     0.000     18.17
Ca            1.688e-02
   Ca+2            1.123e-02   5.236e-03    -1.949    -2.281    -0.332    -16.29
   CaSO4           5.643e-03   5.702e-03    -2.248    -2.244     0.004      8.86
   CaHSO4+         2.406e-08   1.967e-08    -7.619    -7.706    -0.087     (0)  
   CaOH+           4.208e-09   3.441e-09    -8.376    -8.463    -0.087     (0)  
H(0)          6.359e-34
   H2              3.179e-34   3.212e-34   -33.498   -33.493     0.004     28.48
O(0)          2.192e-15
   O2              1.096e-15   1.107e-15   -14.960   -14.956     0.004     31.93
S(-2)         0.000e+00
   HS-             0.000e+00   0.000e+00  -100.687  -100.779    -0.092     21.32
   H2S             0.000e+00   0.000e+00  -100.826  -100.821     0.004     36.88
   S-2             0.000e+00   0.000e+00  -105.510  -105.849    -0.339     (0)  
S(6)          1.688e-02
   SO4-2           1.123e-02   5.126e-03    -1.950    -2.290    -0.341     16.61
   CaSO4           5.643e-03   5.702e-03    -2.248    -2.244     0.004      8.86
   HSO4-           3.137e-07   2.565e-07    -6.503    -6.591    -0.087     41.04
   CaHSO4+         2.406e-08   1.967e-08    -7.619    -7.706    -0.087     (0)  

------------------------------Saturation indices-------------------------------

  Phase               SI** log IAP   log K(335 K, 223 atm)

  Anhydrite         0.00     -4.57   -4.57  CaSO4
  Gypsum           -0.04     -4.57   -4.53  CaSO4:2H2O
  H2(g)           -30.25    -33.49   -3.24  H2
  H2O(g)           -0.61     -0.00    0.61  H2O
  H2S(g)          -99.37   -107.38   -8.01  H2S
  O2(g)           -11.77    -14.96   -3.18  O2
  Sulfur          -74.70    -70.72    3.98  S

**For a gas, SI = log10(fugacity). Fugacity = pressure * phi / 1 atm.
  For ideal gases, phi = 1.

Reaction step 4.

Using solution 1.	
Using pure phase assemblage 1.	
Using pressure 1.	

-------------------------------Phase assemblage--------------------------------

                                                      Moles in assemblage
Phase               SI  log IAP  log K(T, P)   Initial       Final       Delta

Anhydrite         0.00    -4.49     -4.49    1.000e+01   1.997e+01   9.974e+00
Gypsum           -0.03    -4.49     -4.47    1.000e+01           0  -1.000e+01

-----------------------------Solution composition------------------------------

	Elements           Molality       Moles

	Ca                1.917e-02   2.607e-02
	S                 1.917e-02   2.607e-02

----------------------------Description of solution----------------------------

                                       pH  =   6.578      Charge balance
                                       pe  =   8.218      Adjusted to redox equilibrium
       Specific Conductance (µS/cm, 62°C)  = 4944
                          Density (g/cm³)  =   0.99883
                               Volume (L)  =   1.36547
                        Activity of water  =   0.999
                           Ionic strength  =   5.053e-02
                       Mass of water (kg)  =   1.360e+00
                 Total alkalinity (eq/kg)  =  -2.166e-16
                    Total carbon (mol/kg)  =   0.000e+00
                       Total CO2 (mol/kg)  =   0.000e+00
                         Temperature (°C)  =  62.00
                           Pressure (atm)  = 334.00
                  Electrical balance (eq)  =  -1.570e-10
 Percent error, 100*(Cat-|An|)/(Cat+|An|)  =  -0.00
                               Iterations  =  49
                                  Total H  = 1.510124e+02
                                  Total O  = 7.561051e+01

----------------------------Distribution of species----------------------------

                                               Log       Log       Log    mole V
   Species          Molality    Activity  Molality  Activity     Gamma   cm³/mol

   OH-             6.657e-07   5.339e-07    -6.177    -6.273    -0.096     -4.45
   H+              3.120e-07   2.642e-07    -6.506    -6.578    -0.072      0.00
   H2O             5.551e+01   9.995e-01     1.744    -0.000     0.000     18.08
Ca            1.917e-02
   Ca+2            1.263e-02   5.729e-03    -1.899    -2.242    -0.343    -15.62
   CaSO4           6.535e-03   6.611e-03    -2.185    -2.180     0.005      9.06
   CaHSO4+         3.029e-08   2.459e-08    -7.519    -7.609    -0.091     (0)  
   CaOH+           4.431e-09   3.597e-09    -8.353    -8.444    -0.091     (0)  
H(0)          1.825e-33
   H2              9.123e-34   9.230e-34   -33.040   -33.035     0.005     28.44
O(0)          2.148e-16
   O2              1.074e-16   1.087e-16   -15.969   -15.964     0.005     31.70
S(-2)         0.000e+00
   HS-             0.000e+00   0.000e+00   -98.727   -98.823    -0.096     21.34
   H2S             0.000e+00   0.000e+00   -98.877   -98.872     0.005     36.71
   S-2             0.000e+00   0.000e+00  -103.427  -103.778    -0.352     (0)  
S(6)          1.917e-02
   SO4-2           1.263e-02   5.594e-03    -1.899    -2.252    -0.354     16.55
   CaSO4           6.535e-03   6.611e-03    -2.185    -2.180     0.005      9.06
   HSO4-           3.279e-07   2.661e-07    -6.484    -6.575    -0.091     40.81
   CaHSO4+         3.029e-08   2.459e-08    -7.519    -7.609    -0.091     (0)  

------------------------------Saturation indices-------------------------------

  Phase               SI** log IAP   log K(335 K, 334 atm)

  Anhydrite         0.00     -4.49   -4.49  CaSO4
  Gypsum           -0.03     -4.49   -4.47  CaSO4:2H2O
  H2(g)           -29.75    -33.03   -3.29  H2
  H2O(g)           -0.57     -0.00    0.57  H2O
  H2S(g)          -97.35   -105.40   -8.05  H2S
  O2(g)           -12.73    -15.96   -3.24  O2
  Sulfur          -73.20    -69.28    3.92  S

**For a gas, SI = log10(fugacity). Fugacity = pressure * phi / 1 atm.
  For ideal gases, phi = 1.

Reaction step 5.

Using solution 1.	
Using pure phase assemblage 1.	
Using pressure 1.	

-------------------------------Phase assemblage--------------------------------

                                                      Moles in assemblage
Phase               SI  log IAP  log K(T, P)   Initial       Final       Delta

Anhydrite         0.00    -4.42     -4.42    1.000e+01   1.997e+01   9.970e+00
Gypsum           -0.01    -4.42     -4.41    1.000e+01           0  -1.000e+01

-----------------------------Solution composition------------------------------

	Elements           Molality       Moles

	Ca                2.173e-02   2.955e-02
	S                 2.173e-02   2.955e-02

----------------------------Description of solution----------------------------

                                       pH  =   6.558      Charge balance
                                       pe  =   8.510      Adjusted to redox equilibrium
       Specific Conductance (µS/cm, 62°C)  = 5480
                          Density (g/cm³)  =   1.00367
                               Volume (L)  =   1.35935
                        Activity of water  =   0.999
                           Ionic strength  =   5.668e-02
                       Mass of water (kg)  =   1.360e+00
                 Total alkalinity (eq/kg)  =  -2.490e-16
                    Total carbon (mol/kg)  =   0.000e+00
                       Total CO2 (mol/kg)  =   0.000e+00
                         Temperature (°C)  =  62.00
                           Pressure (atm)  = 445.00
                  Electrical balance (eq)  =  -3.123e-16
 Percent error, 100*(Cat-|An|)/(Cat+|An|)  =  -0.00
                               Iterations  =  41
                                  Total H  = 1.510124e+02
                                  Total O  = 7.562443e+01

----------------------------Distribution of species----------------------------

                                               Log       Log       Log    mole V
   Species          Molality    Activity  Molality  Activity     Gamma   cm³/mol

   OH-             7.037e-07   5.595e-07    -6.153    -6.252    -0.100     -4.63
   H+              3.282e-07   2.766e-07    -6.484    -6.558    -0.074      0.00
   H2O             5.551e+01   9.994e-01     1.744    -0.000     0.000     18.00
Ca            2.173e-02
   Ca+2            1.417e-02   6.255e-03    -1.849    -2.204    -0.355    -14.99
   CaSO4           7.555e-03   7.654e-03    -2.122    -2.116     0.006      9.24
   CaHSO4+         3.798e-08   3.060e-08    -7.420    -7.514    -0.094     (0)  
   CaOH+           4.655e-09   3.751e-09    -8.332    -8.426    -0.094     (0)  
H(0)          4.660e-34
   H2              2.330e-34   2.361e-34   -33.633   -33.627     0.006     28.40
O(0)          2.660e-15
   O2              1.330e-15   1.347e-15   -14.876   -14.870     0.006     31.47
S(-2)         0.000e+00
   HS-             0.000e+00   0.000e+00  -100.970  -101.070    -0.100     21.37
   H2S             0.000e+00   0.000e+00  -101.130  -101.124     0.006     36.56
   S-2             0.000e+00   0.000e+00  -105.547  -105.912    -0.365     (0)  
S(6)          2.173e-02
   SO4-2           1.417e-02   6.090e-03    -1.849    -2.215    -0.367     16.50
   CaSO4           7.555e-03   7.654e-03    -2.122    -2.116     0.006      9.24
   HSO4-           3.423e-07   2.758e-07    -6.466    -6.559    -0.094     40.59
   CaHSO4+         3.798e-08   3.060e-08    -7.420    -7.514    -0.094     (0)  

------------------------------Saturation indices-------------------------------

  Phase               SI** log IAP   log K(335 K, 445 atm)

  Anhydrite         0.00     -4.42   -4.42  CaSO4
  Gypsum           -0.01     -4.42   -4.41  CaSO4:2H2O
  H2(g)           -30.29    -33.63   -3.34  H2
  H2O(g)           -0.54     -0.00    0.54  H2O
  H2S(g)          -99.54   -107.63   -8.09  H2S
  O2(g)           -11.58    -14.87   -3.29  O2
  Sulfur          -74.85    -70.99    3.86  S

**For a gas, SI = log10(fugacity). Fugacity = pressure * phi / 1 atm.
  For ideal gases, phi = 1.

Reaction step 6.

Using solution 1.	
Using pure phase assemblage 1.	
Using pressure 1.	

-------------------------------Phase assemblage--------------------------------

                                                      Moles in assemblage
Phase               SI  log IAP  log K(T, P)   Initial       Final       Delta

Anhydrite         0.00    -4.35     -4.35    1.000e+01   1.997e+01   9.967e+00
Gypsum           -0.00    -4.35     -4.35    1.000e+01           0  -1.000e+01

-----------------------------Solution composition------------------------------

	Elements           Molality       Moles

	Ca                2.459e-02   3.344e-02
	S                 2.459e-02   3.344e-02

----------------------------Description of solution----------------------------

                                       pH  =   6.538      Charge balance
                                       pe  =   8.211      Adjusted to redox equilibrium
       Specific Conductance (µS/cm, 62°C)  = 6060
                          Density (g/cm³)  =   1.00846
                               Volume (L)  =   1.35343
                        Activity of water  =   0.999
                           Ionic strength  =   6.345e-02
                       Mass of water (kg)  =   1.360e+00
                 Total alkalinity (eq/kg)  =  -2.449e-16
                    Total carbon (mol/kg)  =   0.000e+00
                       Total CO2 (mol/kg)  =   0.000e+00
                         Temperature (°C)  =  62.00
                           Pressure (atm)  = 556.00
                  Electrical balance (eq)  =  -1.718e-14
 Percent error, 100*(Cat-|An|)/(Cat+|An|)  =  -0.00
                               Iterations  =  20
                                  Total H  = 1.510124e+02
                                  Total O  = 7.564000e+01

----------------------------Distribution of species----------------------------

                                               Log       Log       Log    mole V
   Species          Molality    Activity  Molality  Activity     Gamma   cm³/mol

   OH-             7.445e-07   5.866e-07    -6.128    -6.232    -0.104     -4.80
   H+              3.451e-07   2.895e-07    -6.462    -6.538    -0.076      0.00
   H2O             5.551e+01   9.993e-01     1.744    -0.000     0.000     17.92
Ca            2.459e-02
   Ca+2            1.586e-02   6.817e-03    -1.800    -2.166    -0.367    -14.40
   CaSO4           8.723e-03   8.851e-03    -2.059    -2.053     0.006      9.41
   CaHSO4+         4.740e-08   3.792e-08    -7.324    -7.421    -0.097     (0)  
   CaOH+           4.881e-09   3.905e-09    -8.311    -8.408    -0.097     (0)  
H(0)          1.796e-33
   H2              8.982e-34   9.114e-34   -33.047   -33.040     0.006     28.36
O(0)          1.446e-16
   O2              7.231e-17   7.338e-17   -16.141   -16.134     0.006     31.27
S(-2)         0.000e+00
   HS-             0.000e+00   0.000e+00   -98.499   -98.602    -0.104     21.39
   H2S             0.000e+00   0.000e+00   -98.668   -98.662     0.006     36.41
   S-2             0.000e+00   0.000e+00  -102.954  -103.331    -0.377     (0)  
S(6)          2.459e-02
   SO4-2           1.586e-02   6.616e-03    -1.800    -2.179    -0.380     16.47
   CaSO4           8.723e-03   8.851e-03    -2.059    -2.053     0.006      9.41
   HSO4-           3.569e-07   2.855e-07    -6.447    -6.544    -0.097     40.39
   CaHSO4+         4.740e-08   3.792e-08    -7.324    -7.421    -0.097     (0)  

------------------------------Saturation indices-------------------------------

  Phase               SI** log IAP   log K(335 K, 556 atm)

  Anhydrite         0.00     -4.35   -4.35  CaSO4
  Gypsum           -0.00     -4.35   -4.35  CaSO4:2H2O
  H2(g)           -29.65    -33.04   -3.39  H2
  H2O(g)           -0.51     -0.00    0.51  H2O
  H2S(g)          -97.02   -105.14   -8.12  H2S
  O2(g)           -12.79    -16.13   -3.34  O2
  Sulfur          -72.96    -69.16    3.79  S

**For a gas, SI = log10(fugacity). Fugacity = pressure * phi / 1 atm.
  For ideal gases, phi = 1.

Reaction step 7.

Using solution 1.	
Using pure phase assemblage 1.	
Using pressure 1.	

-------------------------------Phase assemblage--------------------------------

                                                      Moles in assemblage
Phase               SI  log IAP  log K(T, P)   Initial       Final       Delta

Anhydrite        -0.01    -4.29     -4.27    1.000e+01           0  -1.000e+01
Gypsum            0.00    -4.29     -4.29    1.000e+01   1.998e+01   9.983e+00

-----------------------------Solution composition------------------------------

	Elements           Molality       Moles

	Ca                2.717e-02   1.740e-02
	S                 2.717e-02   1.740e-02

----------------------------Description of solution----------------------------

                                       pH  =   6.517      Charge balance
                                       pe  =   8.300      Adjusted to redox equilibrium
       Specific Conductance (µS/cm, 62°C)  = 6576
                          Density (g/cm³)  =   1.01311
                               Volume (L)  =   0.63436
                        Activity of water  =   0.999
                           Ionic strength  =   6.952e-02
                       Mass of water (kg)  =   6.403e-01
                 Total alkalinity (eq/kg)  =  -5.289e-16
                    Total carbon (mol/kg)  =   0.000e+00
                       Total CO2 (mol/kg)  =   0.000e+00
                         Temperature (°C)  =  62.00
                           Pressure (atm)  = 667.00
                  Electrical balance (eq)  =   2.455e-13
 Percent error, 100*(Cat-|An|)/(Cat+|An|)  =   0.00
                               Iterations  =  43
                                  Total H  = 7.108202e+01
                                  Total O  = 3.561059e+01

----------------------------Distribution of species----------------------------

                                               Log       Log       Log    mole V
   Species          Molality    Activity  Molality  Activity     Gamma   cm³/mol

   OH-             7.838e-07   6.132e-07    -6.106    -6.212    -0.107     -4.96
   H+              3.638e-07   3.042e-07    -6.439    -6.517    -0.078      0.00
   H2O             5.551e+01   9.992e-01     1.744    -0.000     0.000     17.85
Ca            2.717e-02
   Ca+2            1.738e-02   7.314e-03    -1.760    -2.136    -0.376    -13.86
   CaSO4           9.788e-03   9.946e-03    -2.009    -2.002     0.007      9.57
   CaHSO4+         5.747e-08   4.572e-08    -7.241    -7.340    -0.099     (0)  
   CaOH+           5.013e-09   3.988e-09    -8.300    -8.399    -0.099     (0)  
H(0)          1.176e-33
   H2              5.881e-34   5.976e-34   -33.231   -33.224     0.007     28.32
O(0)          2.729e-16
   O2              1.364e-16   1.386e-16   -15.865   -15.858     0.007     31.08
S(-2)         0.000e+00
   HS-             0.000e+00   0.000e+00   -99.112   -99.219    -0.107     21.42
   H2S             0.000e+00   0.000e+00   -99.289   -99.282     0.007     36.28
   S-2             0.000e+00   0.000e+00  -103.450  -103.838    -0.387     (0)  
S(6)          2.717e-02
   SO4-2           1.738e-02   7.078e-03    -1.760    -2.150    -0.390     16.44
   CaSO4           9.788e-03   9.946e-03    -2.009    -2.002     0.007      9.57
   HSO4-           3.675e-07   2.924e-07    -6.435    -6.534    -0.099     40.21
   CaHSO4+         5.747e-08   4.572e-08    -7.241    -7.340    -0.099     (0)  

------------------------------Saturation indices-------------------------------

  Phase               SI** log IAP   log K(335 K, 667 atm)

  Anhydrite        -0.01     -4.29   -4.27  CaSO4
  Gypsum            0.00     -4.29   -4.29  CaSO4:2H2O
  H2(g)           -29.79    -33.22   -3.44  H2
  H2O(g)           -0.48     -0.00    0.48  H2O
  H2S(g)          -97.57   -105.74   -8.16  H2S
  O2(g)           -12.46    -15.86   -3.40  O2
  Sulfur          -73.38    -69.65    3.73  S

**For a gas, SI = log10(fugacity). Fugacity = pressure * phi / 1 atm.
  For ideal gases, phi = 1.

Reaction step 8.

Using solution 1.	
Using pure phase assemblage 1.	
Using pressure 1.	

-------------------------------Phase assemblage--------------------------------

                                                      Moles in assemblage
Phase               SI  log IAP  log K(T, P)   Initial       Final       Delta

Anhydrite        -0.02    -4.23     -4.20    1.000e+01           0  -1.000e+01
Gypsum            0.00    -4.23     -4.23    1.000e+01   1.998e+01   9.981e+00

-----------------------------Solution composition------------------------------

	Elements           Molality       Moles

	Ca                2.998e-02   1.920e-02
	S                 2.998e-02   1.920e-02

----------------------------Description of solution----------------------------

                                       pH  =   6.496      Charge balance
                                       pe  =   8.316      Adjusted to redox equilibrium
       Specific Conductance (µS/cm, 62°C)  = 7123
                          Density (g/cm³)  =   1.01771
                               Volume (L)  =   0.63180
                        Activity of water  =   0.999
                           Ionic strength  =   7.601e-02
                       Mass of water (kg)  =   6.404e-01
                 Total alkalinity (eq/kg)  =  -5.263e-16
                    Total carbon (mol/kg)  =   0.000e+00
                       Total CO2 (mol/kg)  =   0.000e+00
                         Temperature (°C)  =  62.00
                           Pressure (atm)  = 778.00
                  Electrical balance (eq)  =   6.928e-13
 Percent error, 100*(Cat-|An|)/(Cat+|An|)  =   0.00
                               Iterations  =  45
                                  Total H  = 7.108922e+01
                                  Total O  = 3.562139e+01

----------------------------Distribution of species----------------------------

                                               Log       Log       Log    mole V
   Species          Molality    Activity  Molality  Activity     Gamma   cm³/mol

   OH-             8.257e-07   6.414e-07    -6.083    -6.193    -0.110     -5.10
   H+              3.834e-07   3.194e-07    -6.416    -6.496    -0.079      0.00
   H2O             5.551e+01   9.992e-01     1.744    -0.000     0.000     17.77
Ca            2.998e-02
   Ca+2            1.900e-02   7.835e-03    -1.721    -2.106    -0.385    -13.35
   CaSO4           1.097e-02   1.117e-02    -1.960    -1.952     0.008      9.72
   CaHSO4+         6.942e-08   5.492e-08    -7.159    -7.260    -0.102     (0)  
   CaOH+           5.141e-09   4.068e-09    -8.289    -8.391    -0.102     (0)  
H(0)          1.073e-33
   H2              5.363e-34   5.458e-34   -33.271   -33.263     0.008     28.29
O(0)          2.655e-16
   O2              1.327e-16   1.351e-16   -15.877   -15.869     0.008     30.90
S(-2)         0.000e+00
   HS-             0.000e+00   0.000e+00   -99.151   -99.260    -0.110     21.44
   H2S             0.000e+00   0.000e+00   -99.334   -99.326     0.008     36.15
   S-2             0.000e+00   0.000e+00  -103.372  -103.770    -0.397     (0)  
S(6)          2.998e-02
   SO4-2           1.900e-02   7.558e-03    -1.721    -2.122    -0.400     16.41
   CaSO4           1.097e-02   1.117e-02    -1.960    -1.952     0.008      9.72
   HSO4-           3.781e-07   2.991e-07    -6.422    -6.524    -0.102     40.04
   CaHSO4+         6.942e-08   5.492e-08    -7.159    -7.260    -0.102     (0)  

------------------------------Saturation indices-------------------------------

  Phase               SI** log IAP   log K(335 K, 778 atm)

  Anhydrite        -0.02     -4.23   -4.20  CaSO4
  Gypsum            0.00     -4.23   -4.23  CaSO4:2H2O
  H2(g)           -29.78    -33.26   -3.49  H2
  H2O(g)           -0.45     -0.00    0.45  H2O
  H2S(g)          -97.56   -105.76   -8.20  H2S
  O2(g)           -12.42    -15.87   -3.45  O2
  Sulfur          -73.37    -69.70    3.67  S

**For a gas, SI = log10(fugacity). Fugacity = pressure * phi / 1 atm.
  For ideal gases, phi = 1.

Reaction step 9.

Using solution 1.	
Using pure phase assemblage 1.	
Using pressure 1.	

-------------------------------Phase assemblage--------------------------------

                                                      Moles in assemblage
Phase               SI  log IAP  log K(T, P)   Initial       Final       Delta

Anhydrite        -0.04    -4.17     -4.13    1.000e+01           0  -1.000e+01
Gypsum            0.00    -4.17     -4.17    1.000e+01   1.998e+01   9.979e+00

-----------------------------Solution composition------------------------------

	Elements           Molality       Moles

	Ca                3.305e-02   2.117e-02
	S                 3.305e-02   2.117e-02

----------------------------Description of solution----------------------------

                                       pH  =   6.475      Charge balance
                                       pe  =   8.338      Adjusted to redox equilibrium
       Specific Conductance (µS/cm, 62°C)  = 7706
                          Density (g/cm³)  =   1.02226
                               Volume (L)  =   0.62932
                        Activity of water  =   0.999
                           Ionic strength  =   8.302e-02
                       Mass of water (kg)  =   6.404e-01
                 Total alkalinity (eq/kg)  =  -5.227e-16
                    Total carbon (mol/kg)  =   0.000e+00
                       Total CO2 (mol/kg)  =   0.000e+00
                         Temperature (°C)  =  62.00
                           Pressure (atm)  = 889.00
                  Electrical balance (eq)  =  -5.069e-15
 Percent error, 100*(Cat-|An|)/(Cat+|An|)  =  -0.00
                               Iterations  =  81
                                  Total H  = 7.109711e+01
                                  Total O  = 3.563323e+01

----------------------------Distribution of species----------------------------

                                               Log       Log       Log    mole V
   Species          Molality    Activity  Molality  Activity     Gamma   cm³/mol

   OH-             8.706e-07   6.715e-07    -6.060    -6.173    -0.113     -5.23
   H+              4.037e-07   3.352e-07    -6.394    -6.475    -0.081      0.00
   H2O             5.551e+01   9.991e-01     1.744    -0.000     0.000     17.70
Ca            3.305e-02
   Ca+2            2.075e-02   8.385e-03    -1.683    -2.077    -0.394    -12.88
   CaSO4           1.230e-02   1.254e-02    -1.910    -1.902     0.008      9.86
   CaHSO4+         8.360e-08   6.580e-08    -7.078    -7.182    -0.104     (0)  
   CaOH+           5.270e-09   4.148e-09    -8.278    -8.382    -0.104     (0)  
H(0)          9.504e-34
   H2              4.752e-34   4.844e-34   -33.323   -33.315     0.008     28.26
O(0)          2.736e-16
   O2              1.368e-16   1.395e-16   -15.864   -15.856     0.008     30.73
S(-2)         0.000e+00
   HS-             0.000e+00   0.000e+00   -99.239   -99.352    -0.113     21.47
   H2S             0.000e+00   0.000e+00   -99.429   -99.421     0.008     36.04
   S-2             0.000e+00   0.000e+00  -103.345  -103.752    -0.407     (0)  
S(6)          3.305e-02
   SO4-2           2.075e-02   8.062e-03    -1.683    -2.094    -0.411     16.40
   CaSO4           1.230e-02   1.254e-02    -1.910    -1.902     0.008      9.86
   HSO4-           3.886e-07   3.058e-07    -6.411    -6.515    -0.104     39.88
   CaHSO4+         8.360e-08   6.580e-08    -7.078    -7.182    -0.104     (0)  

------------------------------Saturation indices-------------------------------

  Phase               SI** log IAP   log K(335 K, 889 atm)

  Anhydrite        -0.04     -4.17   -4.13  CaSO4
  Gypsum            0.00     -4.17   -4.17  CaSO4:2H2O
  H2(g)           -29.78    -33.31   -3.53  H2
  H2O(g)           -0.42     -0.00    0.42  H2O
  H2S(g)          -97.59   -105.83   -8.24  H2S
  O2(g)           -12.35    -15.86   -3.50  O2
  Sulfur          -73.40    -69.79    3.61  S

**For a gas, SI = log10(fugacity). Fugacity = pressure * phi / 1 atm.
  For ideal gases, phi = 1.

Reaction step 10.

Using solution 1.	
Using pure phase assemblage 1.	
Using pressure 1.	

-------------------------------Phase assemblage--------------------------------

                                                      Moles in assemblage
Phase               SI  log IAP  log K(T, P)   Initial       Final       Delta

Anhydrite        -0.05    -4.11     -4.07    1.000e+01           0  -1.000e+01
Gypsum            0.00    -4.11     -4.11    1.000e+01   1.998e+01   9.977e+00

-----------------------------Solution composition------------------------------

	Elements           Molality       Moles

	Ca                3.643e-02   2.334e-02
	S                 3.643e-02   2.334e-02

----------------------------Description of solution----------------------------

                                       pH  =   6.454      Charge balance
                                       pe  =   8.423      Adjusted to redox equilibrium
       Specific Conductance (µS/cm, 62°C)  = 8328
                          Density (g/cm³)  =   1.02676
                               Volume (L)  =   0.62692
                        Activity of water  =   0.999
                           Ionic strength  =   9.056e-02
                       Mass of water (kg)  =   6.405e-01
                 Total alkalinity (eq/kg)  =  -5.196e-16
                    Total carbon (mol/kg)  =   0.000e+00
                       Total CO2 (mol/kg)  =   0.000e+00
                         Temperature (°C)  =  62.00
                           Pressure (atm)  = 1000.00
                  Electrical balance (eq)  =   3.469e-16
 Percent error, 100*(Cat-|An|)/(Cat+|An|)  =   0.00
                               Iterations  =  20
                                  Total H  = 7.110578e+01
                                  Total O  = 3.564623e+01

----------------------------Distribution of species----------------------------

                                               Log       Log       Log    mole V
   Species          Molality    Activity  Molality  Activity     Gamma   cm³/mol

   OH-             9.188e-07   7.035e-07    -6.037    -6.153    -0.116     -5.34
   H+              4.248e-07   3.515e-07    -6.372    -6.454    -0.082      0.00
   H2O             5.551e+01   9.990e-01     1.744    -0.000     0.000     17.63
Ca            3.643e-02
   Ca+2            2.264e-02   8.966e-03    -1.645    -2.047    -0.402    -12.43
   CaSO4           1.379e-02   1.408e-02    -1.860    -1.851     0.009      9.99
   CaHSO4+         1.004e-07   7.862e-08    -6.998    -7.104    -0.106     (0)  
   CaOH+           5.402e-09   4.229e-09    -8.267    -8.374    -0.106     (0)  
H(0)          6.321e-34
   H2              3.161e-34   3.227e-34   -33.500   -33.491     0.009     28.23
O(0)          5.005e-16
   O2              2.502e-16   2.555e-16   -15.602   -15.593     0.009     30.57
S(-2)         0.000e+00
   HS-             0.000e+00   0.000e+00   -99.826   -99.942    -0.116     21.50
   H2S             0.000e+00   0.000e+00  -100.022  -100.013     0.009     35.93
   S-2             0.000e+00   0.000e+00  -103.816  -104.234    -0.417     (0)  
S(6)          3.643e-02
   SO4-2           2.264e-02   8.591e-03    -1.645    -2.066    -0.421     16.39
   CaSO4           1.379e-02   1.408e-02    -1.860    -1.851     0.009      9.99
   HSO4-           3.989e-07   3.123e-07    -6.399    -6.505    -0.106     39.73
   CaHSO4+         1.004e-07   7.862e-08    -6.998    -7.104    -0.106     (0)  

------------------------------Saturation indices-------------------------------

  Phase               SI** log IAP   log K(335 K, 1000 atm)

  Anhydrite        -0.05     -4.11   -4.07  CaSO4
  Gypsum            0.00     -4.11   -4.11  CaSO4:2H2O
  H2(g)           -29.91    -33.49   -3.58  H2
  H2O(g)           -0.39     -0.00    0.39  H2O
  H2S(g)          -98.12   -106.40   -8.27  H2S
  O2(g)           -12.04    -15.59   -3.55  O2
  Sulfur          -73.81    -70.26    3.55  S

**For a gas, SI = log10(fugacity). Fugacity = pressure * phi / 1 atm.
  For ideal gases, phi = 1.

------------------
End of simulation.
------------------

------------------------------------
Reading input data for simulation 2.
------------------------------------

------------------------------
End of Run after 0.04 Seconds.
------------------------------

