WARNING: Database file from DATABASE keyword is used; command line argument ignored.
   Input file: gypsum
  Output file: gypsum.out
Database file: ../database/pitzer.dat

------------------
Reading data base.
------------------

	SOLUTION_MASTER_SPECIES
	SOLUTION_SPECIES
	PHASES
	PITZER
	EXCHANGE_MASTER_SPECIES
	EXCHANGE_SPECIES
	SURFACE_MASTER_SPECIES
	SURFACE_SPECIES
	END
------------------------------------
Reading input data for simulation 1.
------------------------------------

	DATABASE ../database/pitzer.dat
	PRINT
	 warnings 0
	 echo_input false
	SOLUTION 1
	END
-------------------------------------------
Beginning of initial solution calculations.
-------------------------------------------

Initial solution 1.	

-----------------------------Solution composition------------------------------

	Elements           Molality       Moles

	Pure water     

----------------------------Description of solution----------------------------

                                       pH  =   7.000    
                                       pe  =   4.000    
       Specific Conductance (uS/cm, 25 oC) = 0
                          Density (g/cm3)  =   0.99704
                               Volume (L)  =   1.00297
                        Activity of water  =   1.000
                           Ionic strength  =   1.006e-07
                       Mass of water (kg)  =   1.000e+00
                 Total alkalinity (eq/kg)  =   1.216e-09
                    Total carbon (mol/kg)  =   0.000e+00
                       Total CO2 (mol/kg)  =   0.000e+00
                      Temperature (deg C)  =  25.00
                  Electrical balance (eq)  =  -1.216e-09
 Percent error, 100*(Cat-|An|)/(Cat+|An|)  =  -0.60
                               Iterations  =   3
                         Gamma iterations  =   2
                      Osmotic coefficient  =   0.99988
                         Density of water  =   0.99704
                                  Total H  = 1.110124e+02
                                  Total O  = 5.550622e+01

----------------------------Distribution of species----------------------------

                                                    MacInnes  MacInnes
                                MacInnes       Log       Log       Log    mole V
   Species          Molality    Activity  Molality  Activity     Gamma   cm3/mol

   OH-             1.013e-07   1.012e-07    -6.995    -6.995    -0.000     -4.14
   H+              1.000e-07   1.000e-07    -7.000    -7.000    -0.000      0.00
   H2O             5.551e+01   1.000e+00     1.744    -0.000     0.000     18.07

------------------------------Saturation indices-------------------------------

	Phase               SI** log IAP   log K(298 K,   1 atm)

	H2O(g)           -1.50     -0.00    1.50  H2O

**For a gas, SI = log10(fugacity). For ideal gases, fugacity = pressure / 1 atm.
For a Peng-Robinson gas, fugacity = pressure * phi / 1 atm

------------------
End of simulation.
------------------

------------------------------------
Reading input data for simulation 2.
------------------------------------

	USE solution 1
	REACTION_TEMPERATURE 1 # 19 points from B&D, 11 from Marshall and Slusher
	 0.5, 5, 10, 15, 20, 25, 30, 3.557e+01, 3.733e+01, 40, 4.017e+01, 4.020e+01, 4.765e+01, 4.832e+01, 5.008e+01, 5.491e+01, 60, 6.085e+01, 6.502e+01, 6.963e+01, 7.031e+01, 7.228e+01, 7.491e+01, 7.864e+01, 80, 8.459e+01, 8.940e+01, 8.983e+01, 9.160e+01, 95
	EQUILIBRIUM_PHASES
	Gypsum 0 0.2
	USER_GRAPH
	-axis_titles "Temperature / oC" "mol/kgw"
	-chart_title "Gypsum solubility"
	10 data  0.0128, 0.0133, 0.0140, 0.0145, 0.0149, 0.0151, 0.0152, 1.536e-02, 1.544e-02, 0.0156, 1.489e-02, 1.607e-02, 1.534e-02, 1.518e-02, 1.510e-02, 1.486e-02, 0.0148, 1.462e-02, 1.454e-02, 1.417e-02, 1.483e-02, 1.453e-02, 1.394e-02, 1.372e-02, 0.0135, 1.392e-02, 1.302e-02, 1.263e-02, 1.282e-02, 0.0123
	20 dim c(51)
	30 for i = 1 to 30
	40   read c(i)
	50 next i
	100 plot_xy tc, c(step_no), line_width = 0
	110 plot_xy tc, tot("Ca"), color = Red, symbol = None 
	END
-----------------------------------------
Beginning of batch-reaction calculations.
-----------------------------------------

Reaction step 1.

Using solution 1.	
Using pure phase assemblage 1.	
Using temperature 1.	

-------------------------------Phase assemblage--------------------------------

                                                      Moles in assemblage
Phase               SI  log IAP  log K(T, P)   Initial       Final       Delta

Gypsum            0.00    -4.67     -4.67    2.000e-01   1.871e-01  -1.288e-02

-----------------------------Solution composition------------------------------

	Elements           Molality       Moles

	Ca                1.288e-02   1.288e-02
	S                 1.288e-02   1.288e-02

----------------------------Description of solution----------------------------

                                       pH  =   7.483      Charge balance
                                       pe  =   4.000      Adjusted to redox equilibrium
       Specific Conductance (uS/cm, 0 oC) = 1186
                          Density (g/cm3)  =   1.00174
                               Volume (L)  =   1.00130
                        Activity of water  =   1.000
                           Ionic strength  =   5.151e-02
                       Mass of water (kg)  =   1.000e+00
                 Total alkalinity (eq/kg)  =   1.216e-09
                    Total carbon (mol/kg)  =   0.000e+00
                       Total CO2 (mol/kg)  =   0.000e+00
                      Temperature (deg C)  =   0.50
                  Electrical balance (eq)  =  -1.216e-09
 Percent error, 100*(Cat-|An|)/(Cat+|An|)  =  -0.00
                               Iterations  =  13
                         Gamma iterations  =   4
                      Osmotic coefficient  =   0.71053
                         Density of water  =   0.99987
                                  Total H  = 1.110640e+02
                                  Total O  = 5.558352e+01

----------------------------Distribution of species----------------------------

                                                    MacInnes  MacInnes
                                MacInnes       Log       Log       Log    mole V
   Species          Molality    Activity  Molality  Activity     Gamma   cm3/mol

   OH-             4.862e-08   3.677e-08    -7.313    -7.434    -0.121     -5.89
   H+              3.889e-08   3.291e-08    -7.410    -7.483    -0.073      0.00
   H2O             5.551e+01   9.997e-01     1.744    -0.000     0.000     18.02
Ca            1.288e-02
   Ca+2            1.288e-02   4.962e-03    -1.890    -2.304    -0.414    -18.45
S(6)          1.288e-02
   SO4-2           1.288e-02   4.316e-03    -1.890    -2.365    -0.475      9.74
   HSO4-           8.512e-09   7.067e-09    -8.070    -8.151    -0.081     37.57

------------------------------Saturation indices-------------------------------

	Phase               SI** log IAP   log K(273 K,   1 atm)

	Anhydrite        -0.67     -4.67   -4.00  CaSO4
	Gypsum            0.00     -4.67   -4.67  CaSO4:2H2O
	H2O(g)           -2.19     -0.00    2.19  H2O
	Portlandite     -11.98    -17.17   -5.19  Ca(OH)2

**For a gas, SI = log10(fugacity). For ideal gases, fugacity = pressure / 1 atm.
For a Peng-Robinson gas, fugacity = pressure * phi / 1 atm

Reaction step 2.

Using solution 1.	
Using pure phase assemblage 1.	
Using temperature 1.	

-------------------------------Phase assemblage--------------------------------

                                                      Moles in assemblage
Phase               SI  log IAP  log K(T, P)   Initial       Final       Delta

Gypsum            0.00    -4.65     -4.65    2.000e-01   1.866e-01  -1.342e-02

-----------------------------Solution composition------------------------------

	Elements           Molality       Moles

	Ca                1.342e-02   1.342e-02
	S                 1.342e-02   1.342e-02

----------------------------Description of solution----------------------------

                                       pH  =   7.393      Charge balance
                                       pe  =   4.000      Adjusted to redox equilibrium
       Specific Conductance (uS/cm, 5 oC) = 1413
                          Density (g/cm3)  =   1.00188
                               Volume (L)  =   1.00129
                        Activity of water  =   1.000
                           Ionic strength  =   5.367e-02
                       Mass of water (kg)  =   1.000e+00
                 Total alkalinity (eq/kg)  =   1.216e-09
                    Total carbon (mol/kg)  =   0.000e+00
                       Total CO2 (mol/kg)  =   0.000e+00
                      Temperature (deg C)  =   5.00
                  Electrical balance (eq)  =  -1.216e-09
 Percent error, 100*(Cat-|An|)/(Cat+|An|)  =  -0.00
                               Iterations  =  13
                         Gamma iterations  =   4
                      Osmotic coefficient  =   0.70600
                         Density of water  =   0.99996
                                  Total H  = 1.110661e+02
                                  Total O  = 5.558677e+01

----------------------------Distribution of species----------------------------

                                                    MacInnes  MacInnes
                                MacInnes       Log       Log       Log    mole V
   Species          Molality    Activity  Molality  Activity     Gamma   cm3/mol

   OH-             6.123e-08   4.607e-08    -7.213    -7.337    -0.124     -5.30
   H+              4.802e-08   4.045e-08    -7.319    -7.393    -0.075      0.00
   H2O             5.551e+01   9.997e-01     1.744    -0.000     0.000     18.02
Ca            1.342e-02
   Ca+2            1.342e-02   5.055e-03    -1.872    -2.296    -0.424    -18.19
S(6)          1.342e-02
   SO4-2           1.342e-02   4.400e-03    -1.872    -2.357    -0.484     11.37
   HSO4-           1.199e-08   9.927e-09    -7.921    -8.003    -0.082     38.36

------------------------------Saturation indices-------------------------------

	Phase               SI** log IAP   log K(278 K,   1 atm)

	Anhydrite        -0.61     -4.65   -4.05  CaSO4
	Gypsum            0.00     -4.65   -4.65  CaSO4:2H2O
	H2O(g)           -2.06     -0.00    2.06  H2O
	Portlandite     -11.78    -16.97   -5.19  Ca(OH)2

**For a gas, SI = log10(fugacity). For ideal gases, fugacity = pressure / 1 atm.
For a Peng-Robinson gas, fugacity = pressure * phi / 1 atm

Reaction step 3.

Using solution 1.	
Using pure phase assemblage 1.	
Using temperature 1.	

-------------------------------Phase assemblage--------------------------------

                                                      Moles in assemblage
Phase               SI  log IAP  log K(T, P)   Initial       Final       Delta

Gypsum            0.00    -4.64     -4.64    2.000e-01   1.860e-01  -1.395e-02

-----------------------------Solution composition------------------------------

	Elements           Molality       Moles

	Ca                1.395e-02   1.395e-02
	S                 1.395e-02   1.395e-02

----------------------------Description of solution----------------------------

                                       pH  =   7.300      Charge balance
                                       pe  =   4.000      Adjusted to redox equilibrium
       Specific Conductance (uS/cm, 10 oC) = 1687
                          Density (g/cm3)  =   1.00167
                               Volume (L)  =   1.00162
                        Activity of water  =   1.000
                           Ionic strength  =   5.579e-02
                       Mass of water (kg)  =   1.001e+00
                 Total alkalinity (eq/kg)  =   1.216e-09
                    Total carbon (mol/kg)  =   0.000e+00
                       Total CO2 (mol/kg)  =   0.000e+00
                      Temperature (deg C)  =  10.00
                  Electrical balance (eq)  =  -1.216e-09
 Percent error, 100*(Cat-|An|)/(Cat+|An|)  =  -0.00
                               Iterations  =  13
                         Gamma iterations  =   4
                      Osmotic coefficient  =   0.70123
                         Density of water  =   0.99970
                                  Total H  = 1.110683e+02
                                  Total O  = 5.558994e+01

----------------------------Distribution of species----------------------------

                                                    MacInnes  MacInnes
                                MacInnes       Log       Log       Log    mole V
   Species          Molality    Activity  Molality  Activity     Gamma   cm3/mol

   OH-             7.832e-08   5.863e-08    -7.106    -7.232    -0.126     -4.79
   H+              5.985e-08   5.016e-08    -7.223    -7.300    -0.077      0.00
   H2O             5.551e+01   9.996e-01     1.744    -0.000     0.000     18.02
Ca            1.395e-02
   Ca+2            1.395e-02   5.131e-03    -1.856    -2.290    -0.434    -17.97
S(6)          1.395e-02
   SO4-2           1.395e-02   4.473e-03    -1.856    -2.349    -0.494     12.79
   HSO4-           1.725e-08   1.425e-08    -7.763    -7.846    -0.083     39.06

------------------------------Saturation indices-------------------------------

	Phase               SI** log IAP   log K(283 K,   1 atm)

	Anhydrite        -0.54     -4.64   -4.10  CaSO4
	Gypsum            0.00     -4.64   -4.64  CaSO4:2H2O
	H2O(g)           -1.91     -0.00    1.91  H2O
	Portlandite     -11.56    -16.75   -5.19  Ca(OH)2

**For a gas, SI = log10(fugacity). For ideal gases, fugacity = pressure / 1 atm.
For a Peng-Robinson gas, fugacity = pressure * phi / 1 atm

Reaction step 4.

Using solution 1.	
Using pure phase assemblage 1.	
Using temperature 1.	

-------------------------------Phase assemblage--------------------------------

                                                      Moles in assemblage
Phase               SI  log IAP  log K(T, P)   Initial       Final       Delta

Gypsum            0.00    -4.63     -4.63    2.000e-01   1.856e-01  -1.440e-02

-----------------------------Solution composition------------------------------

	Elements           Molality       Moles

	Ca                1.440e-02   1.440e-02
	S                 1.440e-02   1.440e-02

----------------------------Description of solution----------------------------

                                       pH  =   7.212      Charge balance
                                       pe  =   4.000      Adjusted to redox equilibrium
       Specific Conductance (uS/cm, 15 oC) = 1978
                          Density (g/cm3)  =   1.00111
                               Volume (L)  =   1.00229
                        Activity of water  =   1.000
                           Ionic strength  =   5.759e-02
                       Mass of water (kg)  =   1.001e+00
                 Total alkalinity (eq/kg)  =   1.216e-09
                    Total carbon (mol/kg)  =   0.000e+00
                       Total CO2 (mol/kg)  =   0.000e+00
                      Temperature (deg C)  =  15.00
                  Electrical balance (eq)  =  -1.216e-09
 Percent error, 100*(Cat-|An|)/(Cat+|An|)  =  -0.00
                               Iterations  =  13
                         Gamma iterations  =   4
                      Osmotic coefficient  =   0.69669
                         Density of water  =   0.99910
                                  Total H  = 1.110701e+02
                                  Total O  = 5.559265e+01

----------------------------Distribution of species----------------------------

                                                    MacInnes  MacInnes
                                MacInnes       Log       Log       Log    mole V
   Species          Molality    Activity  Molality  Activity     Gamma   cm3/mol

   OH-             9.918e-08   7.392e-08    -7.004    -7.131    -0.128     -4.38
   H+              7.355e-08   6.135e-08    -7.133    -7.212    -0.079      0.00
   H2O             5.551e+01   9.996e-01     1.744    -0.000     0.000     18.03
Ca            1.440e-02
   Ca+2            1.440e-02   5.180e-03    -1.842    -2.286    -0.444    -17.80
S(6)          1.440e-02
   SO4-2           1.440e-02   4.524e-03    -1.842    -2.345    -0.503     13.91
   HSO4-           2.441e-08   2.012e-08    -7.612    -7.696    -0.084     39.63

------------------------------Saturation indices-------------------------------

	Phase               SI** log IAP   log K(288 K,   1 atm)

	Anhydrite        -0.47     -4.63   -4.16  CaSO4
	Gypsum            0.00     -4.63   -4.63  CaSO4:2H2O
	H2O(g)           -1.77     -0.00    1.77  H2O
	Portlandite     -11.36    -16.55   -5.19  Ca(OH)2

**For a gas, SI = log10(fugacity). For ideal gases, fugacity = pressure / 1 atm.
For a Peng-Robinson gas, fugacity = pressure * phi / 1 atm

Reaction step 5.

Using solution 1.	
Using pure phase assemblage 1.	
Using temperature 1.	

-------------------------------Phase assemblage--------------------------------

                                                      Moles in assemblage
Phase               SI  log IAP  log K(T, P)   Initial       Final       Delta

Gypsum            0.00    -4.63     -4.63    2.000e-01   1.852e-01  -1.477e-02

-----------------------------Solution composition------------------------------

	Elements           Molality       Moles

	Ca                1.477e-02   1.477e-02
	S                 1.477e-02   1.477e-02

----------------------------Description of solution----------------------------

                                       pH  =   7.130      Charge balance
                                       pe  =   4.000      Adjusted to redox equilibrium
       Specific Conductance (uS/cm, 20 oC) = 2284
                          Density (g/cm3)  =   1.00025
                               Volume (L)  =   1.00324
                        Activity of water  =   1.000
                           Ionic strength  =   5.907e-02
                       Mass of water (kg)  =   1.001e+00
                 Total alkalinity (eq/kg)  =   1.216e-09
                    Total carbon (mol/kg)  =   0.000e+00
                       Total CO2 (mol/kg)  =   0.000e+00
                      Temperature (deg C)  =  20.00
                  Electrical balance (eq)  =  -1.216e-09
 Percent error, 100*(Cat-|An|)/(Cat+|An|)  =  -0.00
                               Iterations  =  13
                         Gamma iterations  =   4
                      Osmotic coefficient  =   0.69234
                         Density of water  =   0.99820
                                  Total H  = 1.110715e+02
                                  Total O  = 5.559487e+01

----------------------------Distribution of species----------------------------

                                                    MacInnes  MacInnes
                                MacInnes       Log       Log       Log    mole V
   Species          Molality    Activity  Molality  Activity     Gamma   cm3/mol

   OH-             1.244e-07   9.239e-08    -6.905    -7.034    -0.129     -4.08
   H+              8.919e-08   7.407e-08    -7.050    -7.130    -0.081      0.00
   H2O             5.551e+01   9.996e-01     1.744    -0.000     0.000     18.05
Ca            1.477e-02
   Ca+2            1.477e-02   5.203e-03    -1.831    -2.284    -0.453    -17.67
S(6)          1.477e-02
   SO4-2           1.477e-02   4.553e-03    -1.831    -2.342    -0.511     14.79
   HSO4-           3.403e-08   2.800e-08    -7.468    -7.553    -0.085     40.09

------------------------------Saturation indices-------------------------------

	Phase               SI** log IAP   log K(293 K,   1 atm)

	Anhydrite        -0.41     -4.63   -4.22  CaSO4
	Gypsum            0.00     -4.63   -4.63  CaSO4:2H2O
	H2O(g)           -1.63     -0.00    1.63  H2O
	Portlandite     -11.16    -16.35   -5.19  Ca(OH)2

**For a gas, SI = log10(fugacity). For ideal gases, fugacity = pressure / 1 atm.
For a Peng-Robinson gas, fugacity = pressure * phi / 1 atm

Reaction step 6.

Using solution 1.	
Using pure phase assemblage 1.	
Using temperature 1.	

-------------------------------Phase assemblage--------------------------------

                                                      Moles in assemblage
Phase               SI  log IAP  log K(T, P)   Initial       Final       Delta

Gypsum            0.00    -4.63     -4.63    2.000e-01   1.849e-01  -1.506e-02

-----------------------------Solution composition------------------------------

	Elements           Molality       Moles

	Ca                1.505e-02   1.506e-02
	S                 1.505e-02   1.506e-02

----------------------------Description of solution----------------------------

                                       pH  =   7.054      Charge balance
                                       pe  =   4.000      Adjusted to redox equilibrium
       Specific Conductance (uS/cm, 25 oC) = 2600
                          Density (g/cm3)  =   0.99912
                               Volume (L)  =   1.00444
                        Activity of water  =   1.000
                           Ionic strength  =   6.022e-02
                       Mass of water (kg)  =   1.001e+00
                 Total alkalinity (eq/kg)  =   1.216e-09
                    Total carbon (mol/kg)  =   0.000e+00
                       Total CO2 (mol/kg)  =   0.000e+00
                      Temperature (deg C)  =  25.00
                  Electrical balance (eq)  =  -1.216e-09
 Percent error, 100*(Cat-|An|)/(Cat+|An|)  =  -0.00
                               Iterations  =  13
                         Gamma iterations  =   4
                      Osmotic coefficient  =   0.68817
                         Density of water  =   0.99704
                                  Total H  = 1.110727e+02
                                  Total O  = 5.559660e+01

----------------------------Distribution of species----------------------------

                                                    MacInnes  MacInnes
                                MacInnes       Log       Log       Log    mole V
   Species          Molality    Activity  Molality  Activity     Gamma   cm3/mol

   OH-             1.548e-07   1.145e-07    -6.810    -6.941    -0.131     -3.84
   H+              1.068e-07   8.833e-08    -6.971    -7.054    -0.082      0.00
   H2O             5.551e+01   9.996e-01     1.744    -0.000     0.000     18.07
Ca            1.505e-02
   Ca+2            1.505e-02   5.201e-03    -1.822    -2.284    -0.462    -17.57
S(6)          1.505e-02
   SO4-2           1.505e-02   4.563e-03    -1.822    -2.341    -0.518     15.47
   HSO4-           4.676e-08   3.840e-08    -7.330    -7.416    -0.086     40.47

------------------------------Saturation indices-------------------------------

	Phase               SI** log IAP   log K(298 K,   1 atm)

	Anhydrite        -0.35     -4.62   -4.28  CaSO4
	Gypsum            0.00     -4.63   -4.63  CaSO4:2H2O
	H2O(g)           -1.50     -0.00    1.50  H2O
	Portlandite     -10.98    -16.17   -5.19  Ca(OH)2

**For a gas, SI = log10(fugacity). For ideal gases, fugacity = pressure / 1 atm.
For a Peng-Robinson gas, fugacity = pressure * phi / 1 atm

Reaction step 7.

Using solution 1.	
Using pure phase assemblage 1.	
Using temperature 1.	

-------------------------------Phase assemblage--------------------------------

                                                      Moles in assemblage
Phase               SI  log IAP  log K(T, P)   Initial       Final       Delta

Gypsum            0.00    -4.63     -4.63    2.000e-01   1.847e-01  -1.527e-02

-----------------------------Solution composition------------------------------

	Elements           Molality       Moles

	Ca                1.526e-02   1.527e-02
	S                 1.526e-02   1.527e-02

----------------------------Description of solution----------------------------

                                       pH  =   6.982      Charge balance
                                       pe  =   4.000      Adjusted to redox equilibrium
       Specific Conductance (uS/cm, 30 oC) = 2923
                          Density (g/cm3)  =   0.99774
                               Volume (L)  =   1.00588
                        Activity of water  =   1.000
                           Ionic strength  =   6.105e-02
                       Mass of water (kg)  =   1.001e+00
                 Total alkalinity (eq/kg)  =   1.216e-09
                    Total carbon (mol/kg)  =   0.000e+00
                       Total CO2 (mol/kg)  =   0.000e+00
                      Temperature (deg C)  =  30.00
                  Electrical balance (eq)  =  -1.216e-09
 Percent error, 100*(Cat-|An|)/(Cat+|An|)  =  -0.00
                               Iterations  =  13
                         Gamma iterations  =   4
                      Osmotic coefficient  =   0.68414
                         Density of water  =   0.99564
                                  Total H  = 1.110735e+02
                                  Total O  = 5.559784e+01

----------------------------Distribution of species----------------------------

                                                    MacInnes  MacInnes
                                MacInnes       Log       Log       Log    mole V
   Species          Molality    Activity  Molality  Activity     Gamma   cm3/mol

   OH-             1.909e-07   1.409e-07    -6.719    -6.851    -0.132     -3.67
   H+              1.263e-07   1.041e-07    -6.898    -6.982    -0.084      0.00
   H2O             5.551e+01   9.996e-01     1.744    -0.000     0.000     18.09
Ca            1.526e-02
   Ca+2            1.526e-02   5.175e-03    -1.816    -2.286    -0.470    -17.51
S(6)          1.526e-02
   SO4-2           1.526e-02   4.554e-03    -1.816    -2.342    -0.525     15.98
   HSO4-           6.338e-08   5.197e-08    -7.198    -7.284    -0.086     40.78

------------------------------Saturation indices-------------------------------

	Phase               SI** log IAP   log K(303 K,   1 atm)

	Anhydrite        -0.29     -4.63   -4.34  CaSO4
	Gypsum            0.00     -4.63   -4.63  CaSO4:2H2O
	H2O(g)           -1.38     -0.00    1.38  H2O
	Portlandite     -10.80    -15.99   -5.19  Ca(OH)2

**For a gas, SI = log10(fugacity). For ideal gases, fugacity = pressure / 1 atm.
For a Peng-Robinson gas, fugacity = pressure * phi / 1 atm

Reaction step 8.

Using solution 1.	
Using pure phase assemblage 1.	
Using temperature 1.	

-------------------------------Phase assemblage--------------------------------

                                                      Moles in assemblage
Phase               SI  log IAP  log K(T, P)   Initial       Final       Delta

Gypsum            0.00    -4.64     -4.64    2.000e-01   1.846e-01  -1.541e-02

-----------------------------Solution composition------------------------------

	Elements           Molality       Moles

	Ca                1.540e-02   1.541e-02
	S                 1.540e-02   1.541e-02

----------------------------Description of solution----------------------------

                                       pH  =   6.909      Charge balance
                                       pe  =   4.000      Adjusted to redox equilibrium
       Specific Conductance (uS/cm, 35 oC) = 3283
                          Density (g/cm3)  =   0.99593
                               Volume (L)  =   1.00774
                        Activity of water  =   1.000
                           Ionic strength  =   6.160e-02
                       Mass of water (kg)  =   1.001e+00
                 Total alkalinity (eq/kg)  =   1.216e-09
                    Total carbon (mol/kg)  =   0.000e+00
                       Total CO2 (mol/kg)  =   0.000e+00
                      Temperature (deg C)  =  35.57
                  Electrical balance (eq)  =  -1.216e-09
 Percent error, 100*(Cat-|An|)/(Cat+|An|)  =  -0.00
                               Iterations  =  13
                         Gamma iterations  =   4
                      Osmotic coefficient  =   0.67981
                         Density of water  =   0.99383
                                  Total H  = 1.110741e+02
                                  Total O  = 5.559867e+01

----------------------------Distribution of species----------------------------

                                                    MacInnes  MacInnes
                                MacInnes       Log       Log       Log    mole V
   Species          Molality    Activity  Molality  Activity     Gamma   cm3/mol

   OH-             2.391e-07   1.761e-07    -6.621    -6.754    -0.133     -3.54
   H+              1.503e-07   1.234e-07    -6.823    -6.909    -0.086      0.00
   H2O             5.551e+01   9.996e-01     1.744    -0.000     0.000     18.13
Ca            1.540e-02
   Ca+2            1.540e-02   5.122e-03    -1.812    -2.291    -0.478    -17.47
S(6)          1.540e-02
   SO4-2           1.540e-02   4.523e-03    -1.812    -2.345    -0.532     16.40
   HSO4-           8.760e-08   7.171e-08    -7.057    -7.144    -0.087     41.06

------------------------------Saturation indices-------------------------------

	Phase               SI** log IAP   log K(308 K,   1 atm)

	Anhydrite        -0.22     -4.64   -4.41  CaSO4
	Gypsum            0.00     -4.64   -4.64  CaSO4:2H2O
	H2O(g)           -1.24     -0.00    1.24  H2O
	Portlandite     -10.61    -15.80   -5.19  Ca(OH)2

**For a gas, SI = log10(fugacity). For ideal gases, fugacity = pressure / 1 atm.
For a Peng-Robinson gas, fugacity = pressure * phi / 1 atm

Reaction step 9.

Using solution 1.	
Using pure phase assemblage 1.	
Using temperature 1.	

-------------------------------Phase assemblage--------------------------------

                                                      Moles in assemblage
Phase               SI  log IAP  log K(T, P)   Initial       Final       Delta

Gypsum            0.00    -4.64     -4.64    2.000e-01   1.846e-01  -1.543e-02

-----------------------------Solution composition------------------------------

	Elements           Molality       Moles

	Ca                1.542e-02   1.543e-02
	S                 1.542e-02   1.543e-02

----------------------------Description of solution----------------------------

                                       pH  =   6.886      Charge balance
                                       pe  =   4.000      Adjusted to redox equilibrium
       Specific Conductance (uS/cm, 37 oC) = 3396
                          Density (g/cm3)  =   0.99531
                               Volume (L)  =   1.00838
                        Activity of water  =   1.000
                           Ionic strength  =   6.170e-02
                       Mass of water (kg)  =   1.001e+00
                 Total alkalinity (eq/kg)  =   1.216e-09
                    Total carbon (mol/kg)  =   0.000e+00
                       Total CO2 (mol/kg)  =   0.000e+00
                      Temperature (deg C)  =  37.33
                  Electrical balance (eq)  =  -1.216e-09
 Percent error, 100*(Cat-|An|)/(Cat+|An|)  =  -0.00
                               Iterations  =  13
                         Gamma iterations  =   4
                      Osmotic coefficient  =   0.67846
                         Density of water  =   0.99321
                                  Total H  = 1.110742e+02
                                  Total O  = 5.559881e+01

----------------------------Distribution of species----------------------------

                                                    MacInnes  MacInnes
                                MacInnes       Log       Log       Log    mole V
   Species          Molality    Activity  Molality  Activity     Gamma   cm3/mol

   OH-             2.563e-07   1.887e-07    -6.591    -6.724    -0.133     -3.52
   H+              1.583e-07   1.299e-07    -6.800    -6.886    -0.086      0.00
   H2O             5.551e+01   9.996e-01     1.744    -0.000     0.000     18.14
Ca            1.542e-02
   Ca+2            1.542e-02   5.100e-03    -1.812    -2.292    -0.481    -17.46
S(6)          1.542e-02
   SO4-2           1.542e-02   4.509e-03    -1.812    -2.346    -0.534     16.50
   HSO4-           9.673e-08   7.915e-08    -7.014    -7.102    -0.087     41.13

------------------------------Saturation indices-------------------------------

	Phase               SI** log IAP   log K(310 K,   1 atm)

	Anhydrite        -0.20     -4.64   -4.44  CaSO4
	Gypsum            0.00     -4.64   -4.64  CaSO4:2H2O
	H2O(g)           -1.20     -0.00    1.20  H2O
	Portlandite     -10.55    -15.74   -5.19  Ca(OH)2

**For a gas, SI = log10(fugacity). For ideal gases, fugacity = pressure / 1 atm.
For a Peng-Robinson gas, fugacity = pressure * phi / 1 atm

Reaction step 10.

Using solution 1.	
Using pure phase assemblage 1.	
Using temperature 1.	

-------------------------------Phase assemblage--------------------------------

                                                      Moles in assemblage
Phase               SI  log IAP  log K(T, P)   Initial       Final       Delta

Gypsum            0.00    -4.64     -4.64    2.000e-01   1.845e-01  -1.545e-02

-----------------------------Solution composition------------------------------

	Elements           Molality       Moles

	Ca                1.544e-02   1.545e-02
	S                 1.544e-02   1.545e-02

----------------------------Description of solution----------------------------

                                       pH  =   6.854      Charge balance
                                       pe  =   4.000      Adjusted to redox equilibrium
       Specific Conductance (uS/cm, 40 oC) = 3567
                          Density (g/cm3)  =   0.99431
                               Volume (L)  =   1.00939
                        Activity of water  =   1.000
                           Ionic strength  =   6.177e-02
                       Mass of water (kg)  =   1.001e+00
                 Total alkalinity (eq/kg)  =   1.216e-09
                    Total carbon (mol/kg)  =   0.000e+00
                       Total CO2 (mol/kg)  =   0.000e+00
                      Temperature (deg C)  =  40.00
                  Electrical balance (eq)  =  -1.216e-09
 Percent error, 100*(Cat-|An|)/(Cat+|An|)  =  -0.00
                               Iterations  =  13
                         Gamma iterations  =   4
                      Osmotic coefficient  =   0.67645
                         Density of water  =   0.99221
                                  Total H  = 1.110742e+02
                                  Total O  = 5.559892e+01

----------------------------Distribution of species----------------------------

                                                    MacInnes  MacInnes
                                MacInnes       Log       Log       Log    mole V
   Species          Molality    Activity  Molality  Activity     Gamma   cm3/mol

   OH-             2.842e-07   2.091e-07    -6.546    -6.680    -0.133     -3.49
   H+              1.709e-07   1.400e-07    -6.767    -6.854    -0.087      0.00
   H2O             5.551e+01   9.996e-01     1.744    -0.000     0.000     18.16
Ca            1.544e-02
   Ca+2            1.544e-02   5.063e-03    -1.811    -2.296    -0.484    -17.46
S(6)          1.544e-02
   SO4-2           1.544e-02   4.484e-03    -1.811    -2.348    -0.537     16.62
   HSO4-           1.121e-07   9.166e-08    -6.950    -7.038    -0.087     41.24

------------------------------Saturation indices-------------------------------

	Phase               SI** log IAP   log K(313 K,   1 atm)

	Anhydrite        -0.17     -4.64   -4.47  CaSO4
	Gypsum            0.00     -4.64   -4.64  CaSO4:2H2O
	H2O(g)           -1.14     -0.00    1.14  H2O
	Portlandite     -10.46    -15.65   -5.19  Ca(OH)2

**For a gas, SI = log10(fugacity). For ideal gases, fugacity = pressure / 1 atm.
For a Peng-Robinson gas, fugacity = pressure * phi / 1 atm

Reaction step 11.

Using solution 1.	
Using pure phase assemblage 1.	
Using temperature 1.	

-------------------------------Phase assemblage--------------------------------

                                                      Moles in assemblage
Phase               SI  log IAP  log K(T, P)   Initial       Final       Delta

Gypsum            0.00    -4.64     -4.64    2.000e-01   1.845e-01  -1.545e-02

-----------------------------Solution composition------------------------------

	Elements           Molality       Moles

	Ca                1.544e-02   1.545e-02
	S                 1.544e-02   1.545e-02

----------------------------Description of solution----------------------------

                                       pH  =   6.852      Charge balance
                                       pe  =   4.000      Adjusted to redox equilibrium
       Specific Conductance (uS/cm, 40 oC) = 3578
                          Density (g/cm3)  =   0.99424
                               Volume (L)  =   1.00946
                        Activity of water  =   1.000
                           Ionic strength  =   6.177e-02
                       Mass of water (kg)  =   1.001e+00
                 Total alkalinity (eq/kg)  =   1.216e-09
                    Total carbon (mol/kg)  =   0.000e+00
                       Total CO2 (mol/kg)  =   0.000e+00
                      Temperature (deg C)  =  40.17
                  Electrical balance (eq)  =  -1.216e-09
 Percent error, 100*(Cat-|An|)/(Cat+|An|)  =  -0.00
                               Iterations  =  13
                         Gamma iterations  =   4
                      Osmotic coefficient  =   0.67633
                         Density of water  =   0.99215
                                  Total H  = 1.110742e+02
                                  Total O  = 5.559893e+01

----------------------------Distribution of species----------------------------

                                                    MacInnes  MacInnes
                                MacInnes       Log       Log       Log    mole V
   Species          Molality    Activity  Molality  Activity     Gamma   cm3/mol

   OH-             2.861e-07   2.105e-07    -6.543    -6.677    -0.133     -3.48
   H+              1.718e-07   1.406e-07    -6.765    -6.852    -0.087      0.00
   H2O             5.551e+01   9.996e-01     1.744    -0.000     0.000     18.16
Ca            1.544e-02
   Ca+2            1.544e-02   5.060e-03    -1.811    -2.296    -0.485    -17.46
S(6)          1.544e-02
   SO4-2           1.544e-02   4.482e-03    -1.811    -2.349    -0.537     16.63
   HSO4-           1.131e-07   9.252e-08    -6.946    -7.034    -0.087     41.24

------------------------------Saturation indices-------------------------------

	Phase               SI** log IAP   log K(313 K,   1 atm)

	Anhydrite        -0.17     -4.64   -4.47  CaSO4
	Gypsum            0.00     -4.64   -4.64  CaSO4:2H2O
	H2O(g)           -1.13     -0.00    1.13  H2O
	Portlandite     -10.46    -15.65   -5.19  Ca(OH)2

**For a gas, SI = log10(fugacity). For ideal gases, fugacity = pressure / 1 atm.
For a Peng-Robinson gas, fugacity = pressure * phi / 1 atm

Reaction step 12.

Using solution 1.	
Using pure phase assemblage 1.	
Using temperature 1.	

-------------------------------Phase assemblage--------------------------------

                                                      Moles in assemblage
Phase               SI  log IAP  log K(T, P)   Initial       Final       Delta

Gypsum            0.00    -4.64     -4.64    2.000e-01   1.845e-01  -1.545e-02

-----------------------------Solution composition------------------------------

	Elements           Molality       Moles

	Ca                1.544e-02   1.545e-02
	S                 1.544e-02   1.545e-02

----------------------------Description of solution----------------------------

                                       pH  =   6.852      Charge balance
                                       pe  =   4.000      Adjusted to redox equilibrium
       Specific Conductance (uS/cm, 40 oC) = 3580
                          Density (g/cm3)  =   0.99423
                               Volume (L)  =   1.00947
                        Activity of water  =   1.000
                           Ionic strength  =   6.177e-02
                       Mass of water (kg)  =   1.001e+00
                 Total alkalinity (eq/kg)  =   1.216e-09
                    Total carbon (mol/kg)  =   0.000e+00
                       Total CO2 (mol/kg)  =   0.000e+00
                      Temperature (deg C)  =  40.20
                  Electrical balance (eq)  =  -1.216e-09
 Percent error, 100*(Cat-|An|)/(Cat+|An|)  =  -0.00
                               Iterations  =  13
                         Gamma iterations  =   4
                      Osmotic coefficient  =   0.67630
                         Density of water  =   0.99213
                                  Total H  = 1.110742e+02
                                  Total O  = 5.559893e+01

----------------------------Distribution of species----------------------------

                                                    MacInnes  MacInnes
                                MacInnes       Log       Log       Log    mole V
   Species          Molality    Activity  Molality  Activity     Gamma   cm3/mol

   OH-             2.864e-07   2.107e-07    -6.543    -6.676    -0.133     -3.48
   H+              1.719e-07   1.407e-07    -6.765    -6.852    -0.087      0.00
   H2O             5.551e+01   9.996e-01     1.744    -0.000     0.000     18.16
Ca            1.544e-02
   Ca+2            1.544e-02   5.060e-03    -1.811    -2.296    -0.485    -17.46
S(6)          1.544e-02
   SO4-2           1.544e-02   4.482e-03    -1.811    -2.349    -0.537     16.63
   HSO4-           1.133e-07   9.267e-08    -6.946    -7.033    -0.087     41.24

------------------------------Saturation indices-------------------------------

	Phase               SI** log IAP   log K(313 K,   1 atm)

	Anhydrite        -0.17     -4.64   -4.48  CaSO4
	Gypsum            0.00     -4.64   -4.64  CaSO4:2H2O
	H2O(g)           -1.13     -0.00    1.13  H2O
	Portlandite     -10.46    -15.65   -5.19  Ca(OH)2

**For a gas, SI = log10(fugacity). For ideal gases, fugacity = pressure / 1 atm.
For a Peng-Robinson gas, fugacity = pressure * phi / 1 atm

Reaction step 13.

Using solution 1.	
Using pure phase assemblage 1.	
Using temperature 1.	

-------------------------------Phase assemblage--------------------------------

                                                      Moles in assemblage
Phase               SI  log IAP  log K(T, P)   Initial       Final       Delta

Gypsum            0.00    -4.67     -4.67    2.000e-01   1.846e-01  -1.539e-02

-----------------------------Solution composition------------------------------

	Elements           Molality       Moles

	Ca                1.538e-02   1.539e-02
	S                 1.538e-02   1.539e-02

----------------------------Description of solution----------------------------

                                       pH  =   6.768      Charge balance
                                       pe  =   4.000      Adjusted to redox equilibrium
       Specific Conductance (uS/cm, 47 oC) = 4044
                          Density (g/cm3)  =   0.99116
                               Volume (L)  =   1.01259
                        Activity of water  =   1.000
                           Ionic strength  =   6.154e-02
                       Mass of water (kg)  =   1.001e+00
                 Total alkalinity (eq/kg)  =   1.216e-09
                    Total carbon (mol/kg)  =   0.000e+00
                       Total CO2 (mol/kg)  =   0.000e+00
                      Temperature (deg C)  =  47.65
                  Electrical balance (eq)  =  -1.216e-09
 Percent error, 100*(Cat-|An|)/(Cat+|An|)  =  -0.00
                               Iterations  =  13
                         Gamma iterations  =   4
                      Osmotic coefficient  =   0.67084
                         Density of water  =   0.98907
                                  Total H  = 1.110740e+02
                                  Total O  = 5.559857e+01

----------------------------Distribution of species----------------------------

                                                    MacInnes  MacInnes
                                MacInnes       Log       Log       Log    mole V
   Species          Molality    Activity  Molality  Activity     Gamma   cm3/mol

   OH-             3.786e-07   2.781e-07    -6.422    -6.556    -0.134     -3.46
   H+              2.094e-07   1.707e-07    -6.679    -6.768    -0.089      0.00
   H2O             5.551e+01   9.996e-01     1.744    -0.000     0.000     18.22
Ca            1.538e-02
   Ca+2            1.538e-02   4.929e-03    -1.813    -2.307    -0.494    -17.48
S(6)          1.538e-02
   SO4-2           1.538e-02   4.390e-03    -1.813    -2.358    -0.545     16.81
   HSO4-           1.680e-07   1.371e-07    -6.775    -6.863    -0.088     41.46

------------------------------Saturation indices-------------------------------

	Phase               SI** log IAP   log K(320 K,   1 atm)

	Anhydrite        -0.09     -4.66   -4.58  CaSO4
	Gypsum            0.00     -4.67   -4.67  CaSO4:2H2O
	H2O(g)           -0.97     -0.00    0.97  H2O
	Portlandite     -10.23    -15.42   -5.19  Ca(OH)2

**For a gas, SI = log10(fugacity). For ideal gases, fugacity = pressure / 1 atm.
For a Peng-Robinson gas, fugacity = pressure * phi / 1 atm

Reaction step 14.

Using solution 1.	
Using pure phase assemblage 1.	
Using temperature 1.	

-------------------------------Phase assemblage--------------------------------

                                                      Moles in assemblage
Phase               SI  log IAP  log K(T, P)   Initial       Final       Delta

Gypsum            0.00    -4.67     -4.67    2.000e-01   1.846e-01  -1.538e-02

-----------------------------Solution composition------------------------------

	Elements           Molality       Moles

	Ca                1.537e-02   1.538e-02
	S                 1.537e-02   1.538e-02

----------------------------Description of solution----------------------------

                                       pH  =   6.761      Charge balance
                                       pe  =   4.000      Adjusted to redox equilibrium
       Specific Conductance (uS/cm, 48 oC) = 4085
                          Density (g/cm3)  =   0.99086
                               Volume (L)  =   1.01289
                        Activity of water  =   1.000
                           Ionic strength  =   6.149e-02
                       Mass of water (kg)  =   1.001e+00
                 Total alkalinity (eq/kg)  =   1.216e-09
                    Total carbon (mol/kg)  =   0.000e+00
                       Total CO2 (mol/kg)  =   0.000e+00
                      Temperature (deg C)  =  48.32
                  Electrical balance (eq)  =  -1.216e-09
 Percent error, 100*(Cat-|An|)/(Cat+|An|)  =  -0.00
                               Iterations  =  13
                         Gamma iterations  =   4
                      Osmotic coefficient  =   0.67036
                         Density of water  =   0.98878
                                  Total H  = 1.110740e+02
                                  Total O  = 5.559850e+01

----------------------------Distribution of species----------------------------

                                                    MacInnes  MacInnes
                                MacInnes       Log       Log       Log    mole V
   Species          Molality    Activity  Molality  Activity     Gamma   cm3/mol

   OH-             3.879e-07   2.850e-07    -6.411    -6.545    -0.134     -3.46
   H+              2.129e-07   1.736e-07    -6.672    -6.761    -0.089      0.00
   H2O             5.551e+01   9.996e-01     1.744    -0.000     0.000     18.22
Ca            1.537e-02
   Ca+2            1.537e-02   4.916e-03    -1.813    -2.308    -0.495    -17.48
S(6)          1.537e-02
   SO4-2           1.537e-02   4.380e-03    -1.813    -2.359    -0.545     16.82
   HSO4-           1.738e-07   1.419e-07    -6.760    -6.848    -0.088     41.48

------------------------------Saturation indices-------------------------------

	Phase               SI** log IAP   log K(321 K,   1 atm)

	Anhydrite        -0.08     -4.67   -4.59  CaSO4
	Gypsum            0.00     -4.67   -4.67  CaSO4:2H2O
	H2O(g)           -0.95     -0.00    0.95  H2O
	Portlandite     -10.21    -15.40   -5.19  Ca(OH)2

**For a gas, SI = log10(fugacity). For ideal gases, fugacity = pressure / 1 atm.
For a Peng-Robinson gas, fugacity = pressure * phi / 1 atm

Reaction step 15.

Using solution 1.	
Using pure phase assemblage 1.	
Using temperature 1.	

-------------------------------Phase assemblage--------------------------------

                                                      Moles in assemblage
Phase               SI  log IAP  log K(T, P)   Initial       Final       Delta

Gypsum            0.00    -4.67     -4.67    2.000e-01   1.847e-01  -1.534e-02

-----------------------------Solution composition------------------------------

	Elements           Molality       Moles

	Ca                1.533e-02   1.534e-02
	S                 1.533e-02   1.534e-02

----------------------------Description of solution----------------------------

                                       pH  =   6.742      Charge balance
                                       pe  =   4.000      Adjusted to redox equilibrium
       Specific Conductance (uS/cm, 50 oC) = 4190
                          Density (g/cm3)  =   0.99007
                               Volume (L)  =   1.01369
                        Activity of water  =   1.000
                           Ionic strength  =   6.133e-02
                       Mass of water (kg)  =   1.001e+00
                 Total alkalinity (eq/kg)  =   1.216e-09
                    Total carbon (mol/kg)  =   0.000e+00
                       Total CO2 (mol/kg)  =   0.000e+00
                      Temperature (deg C)  =  50.08
                  Electrical balance (eq)  =  -1.216e-09
 Percent error, 100*(Cat-|An|)/(Cat+|An|)  =  -0.00
                               Iterations  =  13
                         Gamma iterations  =   4
                      Osmotic coefficient  =   0.66910
                         Density of water  =   0.98799
                                  Total H  = 1.110738e+02
                                  Total O  = 5.559826e+01

----------------------------Distribution of species----------------------------

                                                    MacInnes  MacInnes
                                MacInnes       Log       Log       Log    mole V
   Species          Molality    Activity  Molality  Activity     Gamma   cm3/mol

   OH-             4.134e-07   3.037e-07    -6.384    -6.518    -0.134     -3.47
   H+              2.222e-07   1.810e-07    -6.653    -6.742    -0.089      0.00
   H2O             5.551e+01   9.996e-01     1.744    -0.000     0.000     18.23
Ca            1.533e-02
   Ca+2            1.533e-02   4.879e-03    -1.814    -2.312    -0.497    -17.49
S(6)          1.533e-02
   SO4-2           1.533e-02   4.353e-03    -1.814    -2.361    -0.547     16.83
   HSO4-           1.900e-07   1.550e-07    -6.721    -6.810    -0.088     41.51

------------------------------Saturation indices-------------------------------

	Phase               SI** log IAP   log K(323 K,   1 atm)

	Anhydrite        -0.06     -4.67   -4.61  CaSO4
	Gypsum            0.00     -4.67   -4.67  CaSO4:2H2O
	H2O(g)           -0.91     -0.00    0.91  H2O
	Portlandite     -10.16    -15.35   -5.19  Ca(OH)2

**For a gas, SI = log10(fugacity). For ideal gases, fugacity = pressure / 1 atm.
For a Peng-Robinson gas, fugacity = pressure * phi / 1 atm

Reaction step 16.

Using solution 1.	
Using pure phase assemblage 1.	
Using temperature 1.	

-------------------------------Phase assemblage--------------------------------

                                                      Moles in assemblage
Phase               SI  log IAP  log K(T, P)   Initial       Final       Delta

Gypsum            0.00    -4.69     -4.69    2.000e-01   1.848e-01  -1.520e-02

-----------------------------Solution composition------------------------------

	Elements           Molality       Moles

	Ca                1.519e-02   1.520e-02
	S                 1.519e-02   1.520e-02

----------------------------Description of solution----------------------------

                                       pH  =   6.695      Charge balance
                                       pe  =   4.000      Adjusted to redox equilibrium
       Specific Conductance (uS/cm, 54 oC) = 4470
                          Density (g/cm3)  =   0.98778
                               Volume (L)  =   1.01600
                        Activity of water  =   1.000
                           Ionic strength  =   6.075e-02
                       Mass of water (kg)  =   1.001e+00
                 Total alkalinity (eq/kg)  =   1.216e-09
                    Total carbon (mol/kg)  =   0.000e+00
                       Total CO2 (mol/kg)  =   0.000e+00
                      Temperature (deg C)  =  54.91
                  Electrical balance (eq)  =  -1.216e-09
 Percent error, 100*(Cat-|An|)/(Cat+|An|)  =  -0.00
                               Iterations  =  13
                         Gamma iterations  =   4
                      Osmotic coefficient  =   0.66570
                         Density of water  =   0.98573
                                  Total H  = 1.110732e+02
                                  Total O  = 5.559739e+01

----------------------------Distribution of species----------------------------

                                                    MacInnes  MacInnes
                                MacInnes       Log       Log       Log    mole V
   Species          Molality    Activity  Molality  Activity     Gamma   cm3/mol

   OH-             4.906e-07   3.604e-07    -6.309    -6.443    -0.134     -3.52
   H+              2.485e-07   2.020e-07    -6.605    -6.695    -0.090      0.00
   H2O             5.551e+01   9.996e-01     1.744    -0.000     0.000     18.28
Ca            1.519e-02
   Ca+2            1.519e-02   4.771e-03    -1.819    -2.321    -0.503    -17.53
S(6)          1.519e-02
   SO4-2           1.519e-02   4.273e-03    -1.819    -2.369    -0.551     16.80
   HSO4-           2.409e-07   1.964e-07    -6.618    -6.707    -0.089     41.60

------------------------------Saturation indices-------------------------------

	Phase               SI** log IAP   log K(328 K,   1 atm)

	Anhydrite        -0.01     -4.69   -4.68  CaSO4
	Gypsum            0.00     -4.69   -4.69  CaSO4:2H2O
	H2O(g)           -0.81     -0.00    0.81  H2O
	Portlandite     -10.02    -15.21   -5.19  Ca(OH)2

**For a gas, SI = log10(fugacity). For ideal gases, fugacity = pressure / 1 atm.
For a Peng-Robinson gas, fugacity = pressure * phi / 1 atm

Reaction step 17.

Using solution 1.	
Using pure phase assemblage 1.	
Using temperature 1.	

-------------------------------Phase assemblage--------------------------------

                                                      Moles in assemblage
Phase               SI  log IAP  log K(T, P)   Initial       Final       Delta

Gypsum            0.00    -4.71     -4.71    2.000e-01   1.850e-01  -1.498e-02

-----------------------------Solution composition------------------------------

	Elements           Molality       Moles

	Ca                1.498e-02   1.498e-02
	S                 1.498e-02   1.498e-02

----------------------------Description of solution----------------------------

                                       pH  =   6.648      Charge balance
                                       pe  =   4.000      Adjusted to redox equilibrium
       Specific Conductance (uS/cm, 60 oC) = 4748
                          Density (g/cm3)  =   0.98521
                               Volume (L)  =   1.01861
                        Activity of water  =   1.000
                           Ionic strength  =   5.990e-02
                       Mass of water (kg)  =   1.001e+00
                 Total alkalinity (eq/kg)  =   1.216e-09
                    Total carbon (mol/kg)  =   0.000e+00
                       Total CO2 (mol/kg)  =   0.000e+00
                      Temperature (deg C)  =  60.00
                  Electrical balance (eq)  =  -1.216e-09
 Percent error, 100*(Cat-|An|)/(Cat+|An|)  =  -0.00
                               Iterations  =  13
                         Gamma iterations  =   4
                      Osmotic coefficient  =   0.66218
                         Density of water  =   0.98319
                                  Total H  = 1.110724e+02
                                  Total O  = 5.559612e+01

----------------------------Distribution of species----------------------------

                                                    MacInnes  MacInnes
                                MacInnes       Log       Log       Log    mole V
   Species          Molality    Activity  Molality  Activity     Gamma   cm3/mol

   OH-             5.844e-07   4.295e-07    -6.233    -6.367    -0.134     -3.61
   H+              2.770e-07   2.247e-07    -6.558    -6.648    -0.091      0.00
   H2O             5.551e+01   9.996e-01     1.744    -0.000     0.000     18.32
Ca            1.498e-02
   Ca+2            1.498e-02   4.646e-03    -1.825    -2.333    -0.508    -17.60
S(6)          1.498e-02
   SO4-2           1.498e-02   4.179e-03    -1.825    -2.379    -0.554     16.70
   HSO4-           3.062e-07   2.496e-07    -6.514    -6.603    -0.089     41.65

------------------------------Saturation indices-------------------------------

	Phase               SI** log IAP   log K(333 K,   1 atm)

	Anhydrite         0.04     -4.71   -4.75  CaSO4
	Gypsum            0.00     -4.71   -4.71  CaSO4:2H2O
	H2O(g)           -0.71     -0.00    0.71  H2O
	Portlandite      -9.88    -15.07   -5.19  Ca(OH)2

**For a gas, SI = log10(fugacity). For ideal gases, fugacity = pressure / 1 atm.
For a Peng-Robinson gas, fugacity = pressure * phi / 1 atm

Reaction step 18.

Using solution 1.	
Using pure phase assemblage 1.	
Using temperature 1.	

-------------------------------Phase assemblage--------------------------------

                                                      Moles in assemblage
Phase               SI  log IAP  log K(T, P)   Initial       Final       Delta

Gypsum            0.00    -4.72     -4.72    2.000e-01   1.851e-01  -1.494e-02

-----------------------------Solution composition------------------------------

	Elements           Molality       Moles

	Ca                1.494e-02   1.494e-02
	S                 1.494e-02   1.494e-02

----------------------------Description of solution----------------------------

                                       pH  =   6.641      Charge balance
                                       pe  =   4.000      Adjusted to redox equilibrium
       Specific Conductance (uS/cm, 60 oC) = 4793
                          Density (g/cm3)  =   0.98476
                               Volume (L)  =   1.01906
                        Activity of water  =   1.000
                           Ionic strength  =   5.974e-02
                       Mass of water (kg)  =   1.001e+00
                 Total alkalinity (eq/kg)  =   1.216e-09
                    Total carbon (mol/kg)  =   0.000e+00
                       Total CO2 (mol/kg)  =   0.000e+00
                      Temperature (deg C)  =  60.85
                  Electrical balance (eq)  =  -1.216e-09
 Percent error, 100*(Cat-|An|)/(Cat+|An|)  =  -0.00
                               Iterations  =  13
                         Gamma iterations  =   4
                      Osmotic coefficient  =   0.66160
                         Density of water  =   0.98275
                                  Total H  = 1.110722e+02
                                  Total O  = 5.559588e+01

----------------------------Distribution of species----------------------------

                                                    MacInnes  MacInnes
                                MacInnes       Log       Log       Log    mole V
   Species          Molality    Activity  Molality  Activity     Gamma   cm3/mol

   OH-             6.014e-07   4.421e-07    -6.221    -6.355    -0.134     -3.63
   H+              2.818e-07   2.285e-07    -6.550    -6.641    -0.091      0.00
   H2O             5.551e+01   9.996e-01     1.744    -0.000     0.000     18.33
Ca            1.494e-02
   Ca+2            1.494e-02   4.624e-03    -1.826    -2.335    -0.509    -17.61
S(6)          1.494e-02
   SO4-2           1.494e-02   4.162e-03    -1.826    -2.381    -0.555     16.67
   HSO4-           3.184e-07   2.595e-07    -6.497    -6.586    -0.089     41.66

------------------------------Saturation indices-------------------------------

	Phase               SI** log IAP   log K(334 K,   1 atm)

	Anhydrite         0.05     -4.72   -4.76  CaSO4
	Gypsum            0.00     -4.72   -4.72  CaSO4:2H2O
	H2O(g)           -0.69     -0.00    0.69  H2O
	Portlandite      -9.85    -15.04   -5.19  Ca(OH)2

**For a gas, SI = log10(fugacity). For ideal gases, fugacity = pressure / 1 atm.
For a Peng-Robinson gas, fugacity = pressure * phi / 1 atm

Reaction step 19.

Using solution 1.	
Using pure phase assemblage 1.	
Using temperature 1.	

-------------------------------Phase assemblage--------------------------------

                                                      Moles in assemblage
Phase               SI  log IAP  log K(T, P)   Initial       Final       Delta

Gypsum            0.00    -4.74     -4.74    2.000e-01   1.853e-01  -1.472e-02

-----------------------------Solution composition------------------------------

	Elements           Molality       Moles

	Ca                1.472e-02   1.472e-02
	S                 1.472e-02   1.472e-02

----------------------------Description of solution----------------------------

                                       pH  =   6.607      Charge balance
                                       pe  =   4.000      Adjusted to redox equilibrium
       Specific Conductance (uS/cm, 65 oC) = 5003
                          Density (g/cm3)  =   0.98251
                               Volume (L)  =   1.02134
                        Activity of water  =   1.000
                           Ionic strength  =   5.886e-02
                       Mass of water (kg)  =   1.001e+00
                 Total alkalinity (eq/kg)  =   1.216e-09
                    Total carbon (mol/kg)  =   0.000e+00
                       Total CO2 (mol/kg)  =   0.000e+00
                      Temperature (deg C)  =  65.02
                  Electrical balance (eq)  =  -1.216e-09
 Percent error, 100*(Cat-|An|)/(Cat+|An|)  =  -0.00
                               Iterations  =  13
                         Gamma iterations  =   4
                      Osmotic coefficient  =   0.65879
                         Density of water  =   0.98053
                                  Total H  = 1.110713e+02
                                  Total O  = 5.559455e+01

----------------------------Distribution of species----------------------------

                                                    MacInnes  MacInnes
                                MacInnes       Log       Log       Log    mole V
   Species          Molality    Activity  Molality  Activity     Gamma   cm3/mol

   OH-             6.909e-07   5.082e-07    -6.161    -6.294    -0.133     -3.73
   H+              3.056e-07   2.474e-07    -6.515    -6.607    -0.092      0.00
   H2O             5.551e+01   9.997e-01     1.744    -0.000     0.000     18.37
Ca            1.472e-02
   Ca+2            1.472e-02   4.513e-03    -1.832    -2.346    -0.513    -17.68
S(6)          1.472e-02
   SO4-2           1.471e-02   4.077e-03    -1.832    -2.390    -0.557     16.51
   HSO4-           3.841e-07   3.130e-07    -6.416    -6.504    -0.089     41.67

------------------------------Saturation indices-------------------------------

	Phase               SI** log IAP   log K(338 K,   1 atm)

	Anhydrite         0.09     -4.74   -4.82  CaSO4
	Gypsum            0.00     -4.74   -4.74  CaSO4:2H2O
	H2O(g)           -0.61     -0.00    0.61  H2O
	Portlandite      -9.74    -14.93   -5.19  Ca(OH)2

**For a gas, SI = log10(fugacity). For ideal gases, fugacity = pressure / 1 atm.
For a Peng-Robinson gas, fugacity = pressure * phi / 1 atm

Reaction step 20.

Using solution 1.	
Using pure phase assemblage 1.	
Using temperature 1.	

-------------------------------Phase assemblage--------------------------------

                                                      Moles in assemblage
Phase               SI  log IAP  log K(T, P)   Initial       Final       Delta

Gypsum            0.00    -4.76     -4.76    2.000e-01   1.856e-01  -1.444e-02

-----------------------------Solution composition------------------------------

	Elements           Molality       Moles

	Ca                1.443e-02   1.444e-02
	S                 1.443e-02   1.444e-02

----------------------------Description of solution----------------------------

                                       pH  =   6.571      Charge balance
                                       pe  =   4.000      Adjusted to redox equilibrium
       Specific Conductance (uS/cm, 69 oC) = 5218
                          Density (g/cm3)  =   0.97991
                               Volume (L)  =   1.02398
                        Activity of water  =   1.000
                           Ionic strength  =   5.774e-02
                       Mass of water (kg)  =   1.001e+00
                 Total alkalinity (eq/kg)  =   1.216e-09
                    Total carbon (mol/kg)  =   0.000e+00
                       Total CO2 (mol/kg)  =   0.000e+00
                      Temperature (deg C)  =  69.63
                  Electrical balance (eq)  =  -1.216e-09
 Percent error, 100*(Cat-|An|)/(Cat+|An|)  =  -0.00
                               Iterations  =  14
                         Gamma iterations  =   4
                      Osmotic coefficient  =   0.65575
                         Density of water  =   0.97797
                                  Total H  = 1.110702e+02
                                  Total O  = 5.559287e+01

----------------------------Distribution of species----------------------------

                                                    MacInnes  MacInnes
                                MacInnes       Log       Log       Log    mole V
   Species          Molality    Activity  Molality  Activity     Gamma   cm3/mol

   OH-             8.024e-07   5.909e-07    -6.096    -6.228    -0.133     -3.87
   H+              3.319e-07   2.684e-07    -6.479    -6.571    -0.092      0.00
   H2O             5.551e+01   9.997e-01     1.744    -0.000     0.000     18.42
Ca            1.443e-02
   Ca+2            1.443e-02   4.383e-03    -1.841    -2.358    -0.518    -17.77
S(6)          1.443e-02
   SO4-2           1.443e-02   3.976e-03    -1.841    -2.400    -0.560     16.28
   HSO4-           4.693e-07   3.823e-07    -6.329    -6.418    -0.089     41.67

------------------------------Saturation indices-------------------------------

	Phase               SI** log IAP   log K(342 K,   1 atm)

	Anhydrite         0.13     -4.76   -4.89  CaSO4
	Gypsum            0.00     -4.76   -4.76  CaSO4:2H2O
	H2O(g)           -0.52     -0.00    0.52  H2O
	Portlandite      -9.63    -14.82   -5.19  Ca(OH)2

**For a gas, SI = log10(fugacity). For ideal gases, fugacity = pressure / 1 atm.
For a Peng-Robinson gas, fugacity = pressure * phi / 1 atm

Reaction step 21.

Using solution 1.	
Using pure phase assemblage 1.	
Using temperature 1.	

-------------------------------Phase assemblage--------------------------------

                                                      Moles in assemblage
Phase               SI  log IAP  log K(T, P)   Initial       Final       Delta

Gypsum            0.00    -4.76     -4.76    2.000e-01   1.856e-01  -1.440e-02

-----------------------------Solution composition------------------------------

	Elements           Molality       Moles

	Ca                1.439e-02   1.440e-02
	S                 1.439e-02   1.440e-02

----------------------------Description of solution----------------------------

                                       pH  =   6.566      Charge balance
                                       pe  =   4.000      Adjusted to redox equilibrium
       Specific Conductance (uS/cm, 70 oC) = 5248
                          Density (g/cm3)  =   0.97952
                               Volume (L)  =   1.02438
                        Activity of water  =   1.000
                           Ionic strength  =   5.756e-02
                       Mass of water (kg)  =   1.001e+00
                 Total alkalinity (eq/kg)  =   1.216e-09
                    Total carbon (mol/kg)  =   0.000e+00
                       Total CO2 (mol/kg)  =   0.000e+00
                      Temperature (deg C)  =  70.31
                  Electrical balance (eq)  =  -1.216e-09
 Percent error, 100*(Cat-|An|)/(Cat+|An|)  =  -0.00
                               Iterations  =  14
                         Gamma iterations  =   4
                      Osmotic coefficient  =   0.65530
                         Density of water  =   0.97758
                                  Total H  = 1.110700e+02
                                  Total O  = 5.559260e+01

----------------------------Distribution of species----------------------------

                                                    MacInnes  MacInnes
                                MacInnes       Log       Log       Log    mole V
   Species          Molality    Activity  Molality  Activity     Gamma   cm3/mol

   OH-             8.200e-07   6.040e-07    -6.086    -6.219    -0.133     -3.89
   H+              3.358e-07   2.715e-07    -6.474    -6.566    -0.092      0.00
   H2O             5.551e+01   9.997e-01     1.744    -0.000     0.000     18.43
Ca            1.439e-02
   Ca+2            1.439e-02   4.364e-03    -1.842    -2.360    -0.518    -17.78
S(6)          1.439e-02
   SO4-2           1.439e-02   3.961e-03    -1.842    -2.402    -0.560     16.24
   HSO4-           4.831e-07   3.935e-07    -6.316    -6.405    -0.089     41.67

------------------------------Saturation indices-------------------------------

	Phase               SI** log IAP   log K(343 K,   1 atm)

	Anhydrite         0.14     -4.76   -4.90  CaSO4
	Gypsum            0.00     -4.76   -4.76  CaSO4:2H2O
	H2O(g)           -0.51     -0.00    0.51  H2O
	Portlandite      -9.61    -14.80   -5.19  Ca(OH)2

**For a gas, SI = log10(fugacity). For ideal gases, fugacity = pressure / 1 atm.
For a Peng-Robinson gas, fugacity = pressure * phi / 1 atm

Reaction step 22.

Using solution 1.	
Using pure phase assemblage 1.	
Using temperature 1.	

-------------------------------Phase assemblage--------------------------------

                                                      Moles in assemblage
Phase               SI  log IAP  log K(T, P)   Initial       Final       Delta

Gypsum            0.00    -4.77     -4.77    2.000e-01   1.857e-01  -1.426e-02

-----------------------------Solution composition------------------------------

	Elements           Molality       Moles

	Ca                1.426e-02   1.426e-02
	S                 1.426e-02   1.426e-02

----------------------------Description of solution----------------------------

                                       pH  =   6.552      Charge balance
                                       pe  =   4.000      Adjusted to redox equilibrium
       Specific Conductance (uS/cm, 72 oC) = 5333
                          Density (g/cm3)  =   0.97836
                               Volume (L)  =   1.02556
                        Activity of water  =   1.000
                           Ionic strength  =   5.702e-02
                       Mass of water (kg)  =   1.001e+00
                 Total alkalinity (eq/kg)  =   1.216e-09
                    Total carbon (mol/kg)  =   0.000e+00
                       Total CO2 (mol/kg)  =   0.000e+00
                      Temperature (deg C)  =  72.28
                  Electrical balance (eq)  =  -1.216e-09
 Percent error, 100*(Cat-|An|)/(Cat+|An|)  =  -0.00
                               Iterations  =  14
                         Gamma iterations  =   4
                      Osmotic coefficient  =   0.65402
                         Density of water  =   0.97644
                                  Total H  = 1.110695e+02
                                  Total O  = 5.559180e+01

----------------------------Distribution of species----------------------------

                                                    MacInnes  MacInnes
                                MacInnes       Log       Log       Log    mole V
   Species          Molality    Activity  Molality  Activity     Gamma   cm3/mol

   OH-             8.729e-07   6.434e-07    -6.059    -6.192    -0.132     -3.96
   H+              3.469e-07   2.804e-07    -6.460    -6.552    -0.093      0.00
   H2O             5.551e+01   9.997e-01     1.744    -0.000     0.000     18.45
Ca            1.426e-02
   Ca+2            1.426e-02   4.306e-03    -1.846    -2.366    -0.520    -17.83
S(6)          1.426e-02
   SO4-2           1.426e-02   3.916e-03    -1.846    -2.407    -0.561     16.12
   HSO4-           5.248e-07   4.275e-07    -6.280    -6.369    -0.089     41.66

------------------------------Saturation indices-------------------------------

	Phase               SI** log IAP   log K(345 K,   1 atm)

	Anhydrite         0.16     -4.77   -4.93  CaSO4
	Gypsum            0.00     -4.77   -4.77  CaSO4:2H2O
	H2O(g)           -0.47     -0.00    0.47  H2O
	Portlandite      -9.56    -14.75   -5.19  Ca(OH)2

**For a gas, SI = log10(fugacity). For ideal gases, fugacity = pressure / 1 atm.
For a Peng-Robinson gas, fugacity = pressure * phi / 1 atm

Reaction step 23.

Using solution 1.	
Using pure phase assemblage 1.	
Using temperature 1.	

-------------------------------Phase assemblage--------------------------------

                                                      Moles in assemblage
Phase               SI  log IAP  log K(T, P)   Initial       Final       Delta

Gypsum            0.00    -4.79     -4.79    2.000e-01   1.859e-01  -1.408e-02

-----------------------------Solution composition------------------------------

	Elements           Molality       Moles

	Ca                1.407e-02   1.408e-02
	S                 1.407e-02   1.408e-02

----------------------------Description of solution----------------------------

                                       pH  =   6.534      Charge balance
                                       pe  =   4.000      Adjusted to redox equilibrium
       Specific Conductance (uS/cm, 74 oC) = 5440
                          Density (g/cm3)  =   0.97678
                               Volume (L)  =   1.02717
                        Activity of water  =   1.000
                           Ionic strength  =   5.628e-02
                       Mass of water (kg)  =   1.001e+00
                 Total alkalinity (eq/kg)  =   1.216e-09
                    Total carbon (mol/kg)  =   0.000e+00
                       Total CO2 (mol/kg)  =   0.000e+00
                      Temperature (deg C)  =  74.91
                  Electrical balance (eq)  =  -1.216e-09
 Percent error, 100*(Cat-|An|)/(Cat+|An|)  =  -0.00
                               Iterations  =  14
                         Gamma iterations  =   4
                      Osmotic coefficient  =   0.65233
                         Density of water  =   0.97489
                                  Total H  = 1.110687e+02
                                  Total O  = 5.559067e+01

----------------------------Distribution of species----------------------------

                                                    MacInnes  MacInnes
                                MacInnes       Log       Log       Log    mole V
   Species          Molality    Activity  Molality  Activity     Gamma   cm3/mol

   OH-             9.479e-07   6.993e-07    -6.023    -6.155    -0.132     -4.06
   H+              3.618e-07   2.922e-07    -6.442    -6.534    -0.093      0.00
   H2O             5.551e+01   9.997e-01     1.744    -0.000     0.000     18.48
Ca            1.407e-02
   Ca+2            1.407e-02   4.228e-03    -1.852    -2.374    -0.522    -17.89
S(6)          1.407e-02
   SO4-2           1.407e-02   3.855e-03    -1.852    -2.414    -0.562     15.94
   HSO4-           5.849e-07   4.765e-07    -6.233    -6.322    -0.089     41.64

------------------------------Saturation indices-------------------------------

	Phase               SI** log IAP   log K(348 K,   1 atm)

	Anhydrite         0.18     -4.79   -4.97  CaSO4
	Gypsum            0.00     -4.79   -4.79  CaSO4:2H2O
	H2O(g)           -0.42     -0.00    0.42  H2O
	Portlandite      -9.49    -14.68   -5.19  Ca(OH)2

**For a gas, SI = log10(fugacity). For ideal gases, fugacity = pressure / 1 atm.
For a Peng-Robinson gas, fugacity = pressure * phi / 1 atm

Reaction step 24.

Using solution 1.	
Using pure phase assemblage 1.	
Using temperature 1.	

-------------------------------Phase assemblage--------------------------------

                                                      Moles in assemblage
Phase               SI  log IAP  log K(T, P)   Initial       Final       Delta

Gypsum            0.00    -4.81     -4.81    2.000e-01   1.862e-01  -1.379e-02

-----------------------------Solution composition------------------------------

	Elements           Molality       Moles

	Ca                1.379e-02   1.379e-02
	S                 1.379e-02   1.379e-02

----------------------------Description of solution----------------------------

                                       pH  =   6.511      Charge balance
                                       pe  =   4.000      Adjusted to redox equilibrium
       Specific Conductance (uS/cm, 78 oC) = 5580
                          Density (g/cm3)  =   0.97448
                               Volume (L)  =   1.02953
                        Activity of water  =   1.000
                           Ionic strength  =   5.515e-02
                       Mass of water (kg)  =   1.000e+00
                 Total alkalinity (eq/kg)  =   1.216e-09
                    Total carbon (mol/kg)  =   0.000e+00
                       Total CO2 (mol/kg)  =   0.000e+00
                      Temperature (deg C)  =  78.64
                  Electrical balance (eq)  =  -1.216e-09
 Percent error, 100*(Cat-|An|)/(Cat+|An|)  =  -0.00
                               Iterations  =  14
                         Gamma iterations  =   4
                      Osmotic coefficient  =   0.64997
                         Density of water  =   0.97263
                                  Total H  = 1.110676e+02
                                  Total O  = 5.558898e+01

----------------------------Distribution of species----------------------------

                                                    MacInnes  MacInnes
                                MacInnes       Log       Log       Log    mole V
   Species          Molality    Activity  Molality  Activity     Gamma   cm3/mol

   OH-             1.063e-06   7.856e-07    -5.973    -6.105    -0.131     -4.21
   H+              3.825e-07   3.087e-07    -6.417    -6.511    -0.093      0.00
   H2O             5.551e+01   9.997e-01     1.744    -0.000     0.000     18.52
Ca            1.379e-02
   Ca+2            1.379e-02   4.116e-03    -1.861    -2.386    -0.525    -17.99
S(6)          1.379e-02
   SO4-2           1.379e-02   3.767e-03    -1.861    -2.424    -0.564     15.66
   HSO4-           6.796e-07   5.536e-07    -6.168    -6.257    -0.089     41.60

------------------------------Saturation indices-------------------------------

	Phase               SI** log IAP   log K(351 K,   1 atm)

	Anhydrite         0.22     -4.81   -5.03  CaSO4
	Gypsum            0.00     -4.81   -4.81  CaSO4:2H2O
	H2O(g)           -0.36     -0.00    0.36  H2O
	Portlandite      -9.41    -14.60   -5.19  Ca(OH)2

**For a gas, SI = log10(fugacity). For ideal gases, fugacity = pressure / 1 atm.
For a Peng-Robinson gas, fugacity = pressure * phi / 1 atm

Reaction step 25.

Using solution 1.	
Using pure phase assemblage 1.	
Using temperature 1.	

-------------------------------Phase assemblage--------------------------------

                                                      Moles in assemblage
Phase               SI  log IAP  log K(T, P)   Initial       Final       Delta

Gypsum            0.00    -4.82     -4.82    2.000e-01   1.863e-01  -1.369e-02

-----------------------------Solution composition------------------------------

	Elements           Molality       Moles

	Ca                1.368e-02   1.369e-02
	S                 1.368e-02   1.369e-02

----------------------------Description of solution----------------------------

                                       pH  =   6.502      Charge balance
                                       pe  =   4.000      Adjusted to redox equilibrium
       Specific Conductance (uS/cm, 80 oC) = 5628
                          Density (g/cm3)  =   0.97363
                               Volume (L)  =   1.03041
                        Activity of water  =   1.000
                           Ionic strength  =   5.472e-02
                       Mass of water (kg)  =   1.000e+00
                 Total alkalinity (eq/kg)  =   1.216e-09
                    Total carbon (mol/kg)  =   0.000e+00
                       Total CO2 (mol/kg)  =   0.000e+00
                      Temperature (deg C)  =  80.00
                  Electrical balance (eq)  =  -1.216e-09
 Percent error, 100*(Cat-|An|)/(Cat+|An|)  =  -0.00
                               Iterations  =  14
                         Gamma iterations  =   4
                      Osmotic coefficient  =   0.64912
                         Density of water  =   0.97179
                                  Total H  = 1.110672e+02
                                  Total O  = 5.558834e+01

----------------------------Distribution of species----------------------------

                                                    MacInnes  MacInnes
                                MacInnes       Log       Log       Log    mole V
   Species          Molality    Activity  Molality  Activity     Gamma   cm3/mol

   OH-             1.108e-06   8.192e-07    -5.955    -6.087    -0.131     -4.28
   H+              3.900e-07   3.146e-07    -6.409    -6.502    -0.093      0.00
   H2O             5.551e+01   9.997e-01     1.744    -0.000     0.000     18.54
Ca            1.368e-02
   Ca+2            1.368e-02   4.074e-03    -1.864    -2.390    -0.526    -18.02
S(6)          1.368e-02
   SO4-2           1.368e-02   3.734e-03    -1.864    -2.428    -0.564     15.55
   HSO4-           7.170e-07   5.841e-07    -6.145    -6.234    -0.089     41.58

------------------------------Saturation indices-------------------------------

	Phase               SI** log IAP   log K(353 K,   1 atm)

	Anhydrite         0.23     -4.82   -5.05  CaSO4
	Gypsum            0.00     -4.82   -4.82  CaSO4:2H2O
	H2O(g)           -0.33     -0.00    0.33  H2O
	Portlandite      -9.37    -14.56   -5.19  Ca(OH)2

**For a gas, SI = log10(fugacity). For ideal gases, fugacity = pressure / 1 atm.
For a Peng-Robinson gas, fugacity = pressure * phi / 1 atm

Reaction step 26.

Using solution 1.	
Using pure phase assemblage 1.	
Using temperature 1.	

-------------------------------Phase assemblage--------------------------------

                                                      Moles in assemblage
Phase               SI  log IAP  log K(T, P)   Initial       Final       Delta

Gypsum            0.00    -4.85     -4.85    2.000e-01   1.867e-01  -1.331e-02

-----------------------------Solution composition------------------------------

	Elements           Molality       Moles

	Ca                1.330e-02   1.331e-02
	S                 1.330e-02   1.331e-02

----------------------------Description of solution----------------------------

                                       pH  =   6.476      Charge balance
                                       pe  =   4.000      Adjusted to redox equilibrium
       Specific Conductance (uS/cm, 84 oC) = 5776
                          Density (g/cm3)  =   0.97066
                               Volume (L)  =   1.03346
                        Activity of water  =   1.000
                           Ionic strength  =   5.321e-02
                       Mass of water (kg)  =   1.000e+00
                 Total alkalinity (eq/kg)  =   1.216e-09
                    Total carbon (mol/kg)  =   0.000e+00
                       Total CO2 (mol/kg)  =   0.000e+00
                      Temperature (deg C)  =  84.59
                  Electrical balance (eq)  =  -1.216e-09
 Percent error, 100*(Cat-|An|)/(Cat+|An|)  =  -0.00
                               Iterations  =  14
                         Gamma iterations  =   4
                      Osmotic coefficient  =   0.64630
                         Density of water  =   0.96887
                                  Total H  = 1.110657e+02
                                  Total O  = 5.558607e+01

----------------------------Distribution of species----------------------------

                                                    MacInnes  MacInnes
                                MacInnes       Log       Log       Log    mole V
   Species          Molality    Activity  Molality  Activity     Gamma   cm3/mol

   OH-             1.271e-06   9.416e-07    -5.896    -6.026    -0.130     -4.50
   H+              4.145e-07   3.341e-07    -6.382    -6.476    -0.094      0.00
   H2O             5.551e+01   9.997e-01     1.744    -0.000     0.000     18.59
Ca            1.330e-02
   Ca+2            1.330e-02   3.933e-03    -1.876    -2.405    -0.529    -18.16
S(6)          1.330e-02
   SO4-2           1.330e-02   3.620e-03    -1.876    -2.441    -0.565     15.13
   HSO4-           8.554e-07   6.970e-07    -6.068    -6.157    -0.089     41.51

------------------------------Saturation indices-------------------------------

	Phase               SI** log IAP   log K(357 K,   1 atm)

	Anhydrite         0.27     -4.85   -5.12  CaSO4
	Gypsum            0.00     -4.85   -4.85  CaSO4:2H2O
	H2O(g)           -0.25     -0.00    0.25  H2O
	Portlandite      -9.27    -14.46   -5.19  Ca(OH)2

**For a gas, SI = log10(fugacity). For ideal gases, fugacity = pressure / 1 atm.
For a Peng-Robinson gas, fugacity = pressure * phi / 1 atm

Reaction step 27.

Using solution 1.	
Using pure phase assemblage 1.	
Using temperature 1.	

-------------------------------Phase assemblage--------------------------------

                                                      Moles in assemblage
Phase               SI  log IAP  log K(T, P)   Initial       Final       Delta

Gypsum            0.00    -4.88     -4.88    2.000e-01   1.871e-01  -1.289e-02

-----------------------------Solution composition------------------------------

	Elements           Molality       Moles

	Ca                1.288e-02   1.289e-02
	S                 1.288e-02   1.289e-02

----------------------------Description of solution----------------------------

                                       pH  =   6.451      Charge balance
                                       pe  =   4.000      Adjusted to redox equilibrium
       Specific Conductance (uS/cm, 89 oC) = 5907
                          Density (g/cm3)  =   0.96745
                               Volume (L)  =   1.03680
                        Activity of water  =   1.000
                           Ionic strength  =   5.153e-02
                       Mass of water (kg)  =   1.000e+00
                 Total alkalinity (eq/kg)  =   1.216e-09
                    Total carbon (mol/kg)  =   0.000e+00
                       Total CO2 (mol/kg)  =   0.000e+00
                      Temperature (deg C)  =  89.40
                  Electrical balance (eq)  =  -1.216e-09
 Percent error, 100*(Cat-|An|)/(Cat+|An|)  =  -0.00
                               Iterations  =  14
                         Gamma iterations  =   4
                      Osmotic coefficient  =   0.64342
                         Density of water  =   0.96571
                                  Total H  = 1.110640e+02
                                  Total O  = 5.558355e+01

----------------------------Distribution of species----------------------------

                                                    MacInnes  MacInnes
                                MacInnes       Log       Log       Log    mole V
   Species          Molality    Activity  Molality  Activity     Gamma   cm3/mol

   OH-             1.463e-06   1.086e-06    -5.835    -5.964    -0.129     -4.77
   H+              4.391e-07   3.537e-07    -6.357    -6.451    -0.094      0.00
   H2O             5.551e+01   9.997e-01     1.744    -0.000     0.000     18.66
Ca            1.288e-02
   Ca+2            1.288e-02   3.782e-03    -1.890    -2.422    -0.532    -18.32
S(6)          1.288e-02
   SO4-2           1.288e-02   3.500e-03    -1.890    -2.456    -0.566     14.63
   HSO4-           1.022e-06   8.333e-07    -5.990    -6.079    -0.089     41.41

------------------------------Saturation indices-------------------------------

	Phase               SI** log IAP   log K(362 K,   1 atm)

	Anhydrite         0.32     -4.88   -5.19  CaSO4
	Gypsum            0.00     -4.88   -4.88  CaSO4:2H2O
	H2O(g)           -0.17     -0.00    0.17  H2O
	Portlandite      -9.16    -14.35   -5.19  Ca(OH)2

**For a gas, SI = log10(fugacity). For ideal gases, fugacity = pressure / 1 atm.
For a Peng-Robinson gas, fugacity = pressure * phi / 1 atm

Reaction step 28.

Using solution 1.	
Using pure phase assemblage 1.	
Using temperature 1.	

-------------------------------Phase assemblage--------------------------------

                                                      Moles in assemblage
Phase               SI  log IAP  log K(T, P)   Initial       Final       Delta

Gypsum            0.00    -4.88     -4.88    2.000e-01   1.871e-01  -1.285e-02

-----------------------------Solution composition------------------------------

	Elements           Molality       Moles

	Ca                1.284e-02   1.285e-02
	S                 1.284e-02   1.285e-02

----------------------------Description of solution----------------------------

                                       pH  =   6.449      Charge balance
                                       pe  =   4.000      Adjusted to redox equilibrium
       Specific Conductance (uS/cm, 89 oC) = 5917
                          Density (g/cm3)  =   0.96715
                               Volume (L)  =   1.03710
                        Activity of water  =   1.000
                           Ionic strength  =   5.138e-02
                       Mass of water (kg)  =   1.000e+00
                 Total alkalinity (eq/kg)  =   1.216e-09
                    Total carbon (mol/kg)  =   0.000e+00
                       Total CO2 (mol/kg)  =   0.000e+00
                      Temperature (deg C)  =  89.83
                  Electrical balance (eq)  =  -1.216e-09
 Percent error, 100*(Cat-|An|)/(Cat+|An|)  =  -0.00
                               Iterations  =  14
                         Gamma iterations  =   4
                      Osmotic coefficient  =   0.64317
                         Density of water  =   0.96542
                                  Total H  = 1.110638e+02
                                  Total O  = 5.558332e+01

----------------------------Distribution of species----------------------------

                                                    MacInnes  MacInnes
                                MacInnes       Log       Log       Log    mole V
   Species          Molality    Activity  Molality  Activity     Gamma   cm3/mol

   OH-             1.481e-06   1.100e-06    -5.830    -5.959    -0.129     -4.79
   H+              4.413e-07   3.554e-07    -6.355    -6.449    -0.094      0.00
   H2O             5.551e+01   9.997e-01     1.744    -0.000     0.000     18.66
Ca            1.284e-02
   Ca+2            1.284e-02   3.769e-03    -1.891    -2.424    -0.532    -18.34
S(6)          1.284e-02
   SO4-2           1.284e-02   3.489e-03    -1.891    -2.457    -0.566     14.58
   HSO4-           1.038e-06   8.464e-07    -5.984    -6.072    -0.089     41.40

------------------------------Saturation indices-------------------------------

	Phase               SI** log IAP   log K(362 K,   1 atm)

	Anhydrite         0.32     -4.88   -5.20  CaSO4
	Gypsum            0.00     -4.88   -4.88  CaSO4:2H2O
	H2O(g)           -0.17     -0.00    0.17  H2O
	Portlandite      -9.15    -14.34   -5.19  Ca(OH)2

**For a gas, SI = log10(fugacity). For ideal gases, fugacity = pressure / 1 atm.
For a Peng-Robinson gas, fugacity = pressure * phi / 1 atm

Reaction step 29.

Using solution 1.	
Using pure phase assemblage 1.	
Using temperature 1.	

-------------------------------Phase assemblage--------------------------------

                                                      Moles in assemblage
Phase               SI  log IAP  log K(T, P)   Initial       Final       Delta

Gypsum            0.00    -4.89     -4.89    2.000e-01   1.873e-01  -1.269e-02

-----------------------------Solution composition------------------------------

	Elements           Molality       Moles

	Ca                1.268e-02   1.269e-02
	S                 1.268e-02   1.269e-02

----------------------------Description of solution----------------------------

                                       pH  =   6.441      Charge balance
                                       pe  =   4.000      Adjusted to redox equilibrium
       Specific Conductance (uS/cm, 91 oC) = 5959
                          Density (g/cm3)  =   0.96594
                               Volume (L)  =   1.03837
                        Activity of water  =   1.000
                           Ionic strength  =   5.074e-02
                       Mass of water (kg)  =   1.000e+00
                 Total alkalinity (eq/kg)  =   1.216e-09
                    Total carbon (mol/kg)  =   0.000e+00
                       Total CO2 (mol/kg)  =   0.000e+00
                      Temperature (deg C)  =  91.60
                  Electrical balance (eq)  =  -1.216e-09
 Percent error, 100*(Cat-|An|)/(Cat+|An|)  =  -0.00
                               Iterations  =  14
                         Gamma iterations  =   4
                      Osmotic coefficient  =   0.64214
                         Density of water  =   0.96422
                                  Total H  = 1.110632e+02
                                  Total O  = 5.558236e+01

----------------------------Distribution of species----------------------------

                                                    MacInnes  MacInnes
                                MacInnes       Log       Log       Log    mole V
   Species          Molality    Activity  Molality  Activity     Gamma   cm3/mol

   OH-             1.558e-06   1.158e-06    -5.808    -5.936    -0.129     -4.90
   H+              4.499e-07   3.623e-07    -6.347    -6.441    -0.094      0.00
   H2O             5.551e+01   9.997e-01     1.744    -0.000     0.000     18.68
Ca            1.268e-02
   Ca+2            1.268e-02   3.713e-03    -1.897    -2.430    -0.534    -18.40
S(6)          1.268e-02
   SO4-2           1.268e-02   3.444e-03    -1.897    -2.463    -0.566     14.38
   HSO4-           1.106e-06   9.022e-07    -5.956    -6.045    -0.089     41.35

------------------------------Saturation indices-------------------------------

	Phase               SI** log IAP   log K(364 K,   1 atm)

	Anhydrite         0.34     -4.89   -5.23  CaSO4
	Gypsum            0.00     -4.89   -4.89  CaSO4:2H2O
	H2O(g)           -0.14     -0.00    0.14  H2O
	Portlandite      -9.11    -14.30   -5.19  Ca(OH)2

**For a gas, SI = log10(fugacity). For ideal gases, fugacity = pressure / 1 atm.
For a Peng-Robinson gas, fugacity = pressure * phi / 1 atm

Reaction step 30.

Using solution 1.	
Using pure phase assemblage 1.	
Using temperature 1.	

-------------------------------Phase assemblage--------------------------------

                                                      Moles in assemblage
Phase               SI  log IAP  log K(T, P)   Initial       Final       Delta

Gypsum            0.00    -4.92     -4.92    2.000e-01   1.876e-01  -1.238e-02

-----------------------------Solution composition------------------------------

	Elements           Molality       Moles

	Ca                1.237e-02   1.238e-02
	S                 1.237e-02   1.238e-02

----------------------------Description of solution----------------------------

                                       pH  =   6.426      Charge balance
                                       pe  =   4.000      Adjusted to redox equilibrium
       Specific Conductance (uS/cm, 95 oC) = 6030
                          Density (g/cm3)  =   0.96356
                               Volume (L)  =   1.04085
                        Activity of water  =   1.000
                           Ionic strength  =   4.948e-02
                       Mass of water (kg)  =   1.000e+00
                 Total alkalinity (eq/kg)  =   1.216e-09
                    Total carbon (mol/kg)  =   0.000e+00
                       Total CO2 (mol/kg)  =   0.000e+00
                      Temperature (deg C)  =  95.00
                  Electrical balance (eq)  =  -1.216e-09
 Percent error, 100*(Cat-|An|)/(Cat+|An|)  =  -0.00
                               Iterations  =  14
                         Gamma iterations  =   4
                      Osmotic coefficient  =   0.64019
                         Density of water  =   0.96188
                                  Total H  = 1.110619e+02
                                  Total O  = 5.558047e+01

----------------------------Distribution of species----------------------------

                                                    MacInnes  MacInnes
                                MacInnes       Log       Log       Log    mole V
   Species          Molality    Activity  Molality  Activity     Gamma   cm3/mol

   OH-             1.714e-06   1.277e-06    -5.766    -5.894    -0.128     -5.12
   H+              4.660e-07   3.751e-07    -6.332    -6.426    -0.094      0.00
   H2O             5.551e+01   9.997e-01     1.744    -0.000     0.000     18.73
Ca            1.237e-02
   Ca+2            1.237e-02   3.606e-03    -1.908    -2.443    -0.535    -18.53
S(6)          1.237e-02
   SO4-2           1.237e-02   3.357e-03    -1.908    -2.474    -0.566     13.96
   HSO4-           1.247e-06   1.017e-06    -5.904    -5.993    -0.088     41.26

------------------------------Saturation indices-------------------------------

	Phase               SI** log IAP   log K(368 K,   1 atm)

	Anhydrite         0.37     -4.92   -5.28  CaSO4
	Gypsum            0.00     -4.92   -4.92  CaSO4:2H2O
	H2O(g)           -0.08     -0.00    0.08  H2O
	Portlandite      -9.04    -14.23   -5.19  Ca(OH)2

**For a gas, SI = log10(fugacity). For ideal gases, fugacity = pressure / 1 atm.
For a Peng-Robinson gas, fugacity = pressure * phi / 1 atm

------------------
End of simulation.
------------------

------------------------------------
Reading input data for simulation 3.
------------------------------------

------------------------------
End of Run after 0.09 Seconds.
------------------------------

