   Input file: gypsum_P
  Output file: gypsum_P.out
Database file: ../database/phreeqc.dat

------------------
Reading data base.
------------------

	SOLUTION_MASTER_SPECIES
	SOLUTION_SPECIES
	PHASES
	EXCHANGE_MASTER_SPECIES
	EXCHANGE_SPECIES
	SURFACE_MASTER_SPECIES
	SURFACE_SPECIES
	RATES
	END
------------------------------------
Reading input data for simulation 1.
------------------------------------

	DATABASE ../database/phreeqc.dat
	SOLUTION 1
	pH 7 charge
	temp 62
	EQUILIBRIUM_PHASES
	Gypsum
	Anhydrite
	REACTION_PRESSURE
	1 1000 in 10
	USER_GRAPH
	 -headings p Ca SI_Anhydrite SI_Gypsum
	 -axis_titles "Pressure / atm" "mol/kgw" SI
	 -axis_scale sy_axis -0.1 0.04
	 10 graph_x pressure
	 20 graph_y tot("Ca")
	 30 graph_sy SI("Anhydrite"), SI("Gypsum")
	 -end
	USER_GRAPH 2 apparent log_k of CaSO4 complex
	 -headings p
	 -axis_titles "Pressure / atm" "log10 (K)"
	 -axis_scale y_axis 2 2.5
	 10 graph_x pressure
	 20 graph_y log10(act("CaSO4") / (act("Ca+2") * act("SO4-2")))
	END
-------------------------------------------
Beginning of initial solution calculations.
-------------------------------------------

Initial solution 1.	

-----------------------------Solution composition------------------------------

	Elements           Molality       Moles

	Pure water     

----------------------------Description of solution----------------------------

                                       pH  =   6.484      Charge balance
                                       pe  =   4.000    
       Specific Conductance (uS/cm, 62 oC) = 0
                          Density (g/cm3)  =   0.98215
                               Volume (L)  =   1.01818
                        Activity of water  =   1.000
                           Ionic strength  =   3.280e-07
                       Mass of water (kg)  =   1.000e+00
                 Total alkalinity (eq/kg)  =  -3.382e-16
                    Total carbon (mol/kg)  =   0.000e+00
                       Total CO2 (mol/kg)  =   0.000e+00
                      Temperature (deg C)  =  62.00
                  Electrical balance (eq)  =   3.382e-16
 Percent error, 100*(Cat-|An|)/(Cat+|An|)  =   0.00
                               Iterations  =   4
                                  Total H  = 1.110124e+02
                                  Total O  = 5.550622e+01

----------------------------Distribution of species----------------------------

                                               Log       Log       Log    mole V
   Species          Molality    Activity  Molality  Activity     Gamma   cm3/mol

   H+              3.280e-07   3.278e-07    -6.484    -6.484    -0.000      0.00
   OH-             3.280e-07   3.278e-07    -6.484    -6.484    -0.000     -4.04
   H2O             5.551e+01   1.000e+00     1.744    -0.000     0.000     18.34
H(0)          1.096e-24
   H2              5.481e-25   5.481e-25   -24.261   -24.261     0.000     28.58
O(0)          1.164e-33
   O2              5.819e-34   5.819e-34   -33.235   -33.235     0.000     32.47

------------------------------Saturation indices-------------------------------

	Phase               SI   log IAP   log K(335 K,   1 atm)

	H2(g)           -21.12    -24.26   -3.14  H2
	H2O(g)           -0.67     -0.00    0.67  H2O
	O2(g)           -30.17    -33.24   -3.07  O2


-----------------------------------------
Beginning of batch-reaction calculations.
-----------------------------------------

Reaction step 1.

Using solution 1.	
Using pure phase assemblage 1.	
Using pressure 1.	

-------------------------------Phase assemblage--------------------------------

                                                      Moles in assemblage
Phase               SI  log IAP  log K(T, P)   Initial       Final       Delta

Anhydrite         0.00    -4.73     -4.73    1.000e+01   1.998e+01   9.982e+00
Gypsum           -0.07    -4.73     -4.66    1.000e+01           0  -1.000e+01

-----------------------------Solution composition------------------------------

	Elements           Molality       Moles

	Ca                1.300e-02   1.769e-02
	S                 1.300e-02   1.769e-02

----------------------------Description of solution----------------------------

                                       pH  =   6.637      Charge balance
                                       pe  =   8.197      Adjusted to redox equilibrium
       Specific Conductance (uS/cm, 62 oC) = 3580
                          Density (g/cm3)  =   0.98387
                               Volume (L)  =   1.38622
                        Activity of water  =   1.000
                           Ionic strength  =   3.526e-02
                       Mass of water (kg)  =   1.360e+00
                 Total alkalinity (eq/kg)  =  -2.480e-16
                    Total carbon (mol/kg)  =   0.000e+00
                       Total CO2 (mol/kg)  =   0.000e+00
                      Temperature (deg C)  =  62.00
                  Electrical balance (eq)  =  -1.166e-15
 Percent error, 100*(Cat-|An|)/(Cat+|An|)  =  -0.00
                               Iterations  =  21
                                  Total H  = 1.510124e+02
                                  Total O  = 7.557697e+01

----------------------------Distribution of species----------------------------

                                               Log       Log       Log    mole V
   Species          Molality    Activity  Molality  Activity     Gamma   cm3/mol

   OH-             5.659e-07   4.659e-07    -6.247    -6.332    -0.084     -3.75
   H+              2.682e-07   2.305e-07    -6.572    -6.637    -0.066      0.00
   H2O             5.551e+01   9.996e-01     1.744    -0.000     0.000     18.34
Ca            1.300e-02
   Ca+2            8.816e-03   4.343e-03    -2.055    -2.362    -0.308    -17.80
   CaSO4           4.188e-03   4.222e-03    -2.378    -2.375     0.004      8.41
   CaHSO4+         1.496e-08   1.242e-08    -7.825    -7.906    -0.081     (0)  
   CaOH+           3.765e-09   3.125e-09    -8.424    -8.505    -0.081     (0)  
H(0)          2.168e-33
   H2              1.084e-33   1.093e-33   -32.965   -32.961     0.004     28.58
O(0)          2.902e-16
   O2              1.451e-16   1.463e-16   -15.838   -15.835     0.004     32.47
S(-2)         0.000e+00
   HS-             0.000e+00   0.000e+00   -98.815   -98.899    -0.084     21.28
   H2S             0.000e+00   0.000e+00   -98.930   -98.926     0.004     37.26
   S-2             0.000e+00   0.000e+00  -103.887  -104.201    -0.313     (0)  
S(6)          1.300e-02
   SO4-2           8.816e-03   4.271e-03    -2.055    -2.369    -0.315     15.87
   CaSO4           4.188e-03   4.222e-03    -2.378    -2.375     0.004      8.41
   HSO4-           2.865e-07   2.378e-07    -6.543    -6.624    -0.081     41.59
   CaHSO4+         1.496e-08   1.242e-08    -7.825    -7.906    -0.081     (0)  

------------------------------Saturation indices-------------------------------

	Phase               SI   log IAP   log K(335 K,   1 atm)

	Anhydrite         0.00     -4.73   -4.73  CaSO4
	Gypsum           -0.07     -4.73   -4.66  CaSO4:2H2O
	H2(g)           -29.82    -32.96   -3.14  H2
	H2O(g)           -0.67     -0.00    0.67  H2O
	H2S(g)          -97.60   -105.54   -7.94  H2S
	O2(g)           -12.76    -15.83   -3.07  O2
	Sulfur          -73.37    -69.26    4.11  S


Reaction step 2.

Using solution 1.	
Using pure phase assemblage 1.	
Using pressure 1.	

-------------------------------Phase assemblage--------------------------------

                                                      Moles in assemblage
Phase               SI  log IAP  log K(T, P)   Initial       Final       Delta

Anhydrite        -0.00    -4.65     -4.65    1.000e+01   1.998e+01   9.980e+00
Gypsum           -0.06    -4.65     -4.59    1.000e+01           0  -1.000e+01

-----------------------------Solution composition------------------------------

	Elements           Molality       Moles

	Ca                1.485e-02   2.021e-02
	S                 1.485e-02   2.021e-02

----------------------------Description of solution----------------------------

                                       pH  =   6.618      Charge balance
                                       pe  =   8.366      Adjusted to redox equilibrium
       Specific Conductance (uS/cm, 62 oC) = 4005
                          Density (g/cm3)  =   0.98895
                               Volume (L)  =   1.37961
                        Activity of water  =   1.000
                           Ionic strength  =   3.995e-02
                       Mass of water (kg)  =   1.360e+00
                 Total alkalinity (eq/kg)  =  -2.459e-16
                    Total carbon (mol/kg)  =   0.000e+00
                       Total CO2 (mol/kg)  =   0.000e+00
                      Temperature (deg C)  =  62.00
                           Pressure (atm)  = 112.00
                  Electrical balance (eq)  =   9.368e-17
 Percent error, 100*(Cat-|An|)/(Cat+|An|)  =   0.00
                               Iterations  =  19
                                  Total H  = 1.510124e+02
                                  Total O  = 7.558704e+01

----------------------------Distribution of species----------------------------

                                               Log       Log       Log    mole V
   Species          Molality    Activity  Molality  Activity     Gamma   cm3/mol

   OH-             5.968e-07   4.871e-07    -6.224    -6.312    -0.088     -4.01
   H+              2.821e-07   2.412e-07    -6.550    -6.618    -0.068      0.00
   H2O             5.551e+01   9.996e-01     1.744    -0.000     0.000     18.25
Ca            1.485e-02
   Ca+2            9.988e-03   4.782e-03    -2.001    -2.320    -0.320    -17.02
   CaSO4           4.866e-03   4.911e-03    -2.313    -2.309     0.004      8.64
   CaHSO4+         1.909e-08   1.572e-08    -7.719    -7.803    -0.084     (0)  
   CaOH+           3.992e-09   3.289e-09    -8.399    -8.483    -0.084     (0)  
H(0)          9.707e-34
   H2              4.853e-34   4.898e-34   -33.314   -33.310     0.004     28.53
O(0)          1.166e-15
   O2              5.830e-16   5.884e-16   -15.234   -15.230     0.004     32.19
S(-2)         0.000e+00
   HS-             0.000e+00   0.000e+00  -100.082  -100.170    -0.088     21.30
   H2S             0.000e+00   0.000e+00  -100.209  -100.205     0.004     37.06
   S-2             0.000e+00   0.000e+00  -105.027  -105.354    -0.326     (0)  
S(6)          1.485e-02
   SO4-2           9.987e-03   4.693e-03    -2.001    -2.329    -0.328     15.86
   CaSO4           4.866e-03   4.911e-03    -2.313    -2.309     0.004      8.64
   HSO4-           2.996e-07   2.468e-07    -6.523    -6.608    -0.084     41.31
   CaHSO4+         1.909e-08   1.572e-08    -7.719    -7.803    -0.084     (0)  

------------------------------Saturation indices-------------------------------

	Phase               SI   log IAP   log K(335 K, 112 atm)

	Anhydrite        -0.00     -4.65   -4.65  CaSO4
	Gypsum           -0.06     -4.65   -4.59  CaSO4:2H2O
	H2(g)           -30.17    -33.31   -3.14  H2
	H2O(g)           -0.64     -0.00    0.64  H2O
	H2S(g)          -98.95   -106.79   -7.84  H2S
	O2(g)           -12.10    -15.23   -3.13  O2
	Sulfur          -74.45    -70.24    4.21  S


Reaction step 3.

WARNING: Maximum iterations exceeded, 100

WARNING: Numerical method failed with this set of convergence parameters.

WARNING: Trying smaller step size, pe step size 10, 5 ... 

Using solution 1.	
Using pure phase assemblage 1.	
Using pressure 1.	

-------------------------------Phase assemblage--------------------------------

                                                      Moles in assemblage
Phase               SI  log IAP  log K(T, P)   Initial       Final       Delta

Anhydrite        -0.00    -4.57     -4.57    1.000e+01   1.998e+01   9.977e+00
Gypsum           -0.04    -4.57     -4.53    1.000e+01           0  -1.000e+01

-----------------------------Solution composition------------------------------

	Elements           Molality       Moles

	Ca                1.692e-02   2.302e-02
	S                 1.692e-02   2.302e-02

----------------------------Description of solution----------------------------

                                       pH  =   6.598      Charge balance
                                       pe  =   8.167      Adjusted to redox equilibrium
       Specific Conductance (uS/cm, 62 oC) = 4467
                          Density (g/cm3)  =   0.99394
                               Volume (L)  =   1.37325
                        Activity of water  =   1.000
                           Ionic strength  =   4.512e-02
                       Mass of water (kg)  =   1.360e+00
                 Total alkalinity (eq/kg)  =  -2.509e-16
                    Total carbon (mol/kg)  =   0.000e+00
                       Total CO2 (mol/kg)  =   0.000e+00
                      Temperature (deg C)  =  62.00
                           Pressure (atm)  = 223.00
                  Electrical balance (eq)  =   3.504e-16
 Percent error, 100*(Cat-|An|)/(Cat+|An|)  =   0.00
                               Iterations  =  25
                                  Total H  = 1.510124e+02
                                  Total O  = 7.559830e+01

----------------------------Distribution of species----------------------------

                                               Log       Log       Log    mole V
   Species          Molality    Activity  Molality  Activity     Gamma   cm3/mol

   OH-             6.299e-07   5.095e-07    -6.201    -6.293    -0.092     -4.24
   H+              2.968e-07   2.526e-07    -6.527    -6.598    -0.070      0.00
   H2O             5.551e+01   9.995e-01     1.744    -0.000     0.000     18.17
Ca            1.692e-02
   Ca+2            1.128e-02   5.252e-03    -1.948    -2.280    -0.332    -16.29
   CaSO4           5.643e-03   5.702e-03    -2.248    -2.244     0.005      8.86
   CaHSO4+         2.423e-08   1.980e-08    -7.616    -7.703    -0.088     (0)  
   CaOH+           4.220e-09   3.449e-09    -8.375    -8.462    -0.088     (0)  
H(0)          2.369e-33
   H2              1.185e-33   1.197e-33   -32.926   -32.922     0.005     28.48
O(0)          1.579e-16
   O2              7.893e-17   7.975e-17   -16.103   -16.098     0.005     31.93
S(-2)         0.000e+00
   HS-             0.000e+00   0.000e+00   -98.403   -98.495    -0.092     21.32
   H2S             0.000e+00   0.000e+00   -98.542   -98.537     0.005     36.88
   S-2             0.000e+00   0.000e+00  -103.223  -103.563    -0.339     (0)  
S(6)          1.692e-02
   SO4-2           1.128e-02   5.141e-03    -1.948    -2.289    -0.341     15.86
   CaSO4           5.643e-03   5.702e-03    -2.248    -2.244     0.005      8.86
   HSO4-           3.131e-07   2.559e-07    -6.504    -6.592    -0.088     41.05
   CaHSO4+         2.423e-08   1.980e-08    -7.616    -7.703    -0.088     (0)  

------------------------------Saturation indices-------------------------------

	Phase               SI   log IAP   log K(335 K, 223 atm)

	Anhydrite         0.00     -4.57   -4.57  CaSO4
	Gypsum           -0.04     -4.57   -4.53  CaSO4:2H2O
	H2(g)           -29.78    -32.92   -3.14  H2
	H2O(g)           -0.61     -0.00    0.61  H2O
	H2S(g)          -97.36   -105.09   -7.74  H2S
	O2(g)           -12.90    -16.10   -3.20  O2
	Sulfur          -73.32    -69.01    4.31  S


Reaction step 4.

Using solution 1.	
Using pure phase assemblage 1.	
Using pressure 1.	

-------------------------------Phase assemblage--------------------------------

                                                      Moles in assemblage
Phase               SI  log IAP  log K(T, P)   Initial       Final       Delta

Anhydrite        -0.00    -4.49     -4.49    1.000e+01   1.997e+01   9.974e+00
Gypsum           -0.03    -4.49     -4.46    1.000e+01           0  -1.000e+01

-----------------------------Solution composition------------------------------

	Elements           Molality       Moles

	Ca                1.924e-02   2.617e-02
	S                 1.924e-02   2.617e-02

----------------------------Description of solution----------------------------

                                       pH  =   6.578      Charge balance
                                       pe  =   8.163      Adjusted to redox equilibrium
       Specific Conductance (uS/cm, 62 oC) = 4969
                          Density (g/cm3)  =   0.99885
                               Volume (L)  =   1.36713
                        Activity of water  =   0.999
                           Ionic strength  =   5.082e-02
                       Mass of water (kg)  =   1.360e+00
                 Total alkalinity (eq/kg)  =  -2.498e-16
                    Total carbon (mol/kg)  =   0.000e+00
                       Total CO2 (mol/kg)  =   0.000e+00
                      Temperature (deg C)  =  62.00
                           Pressure (atm)  = 334.00
                  Electrical balance (eq)  =   3.123e-16
 Percent error, 100*(Cat-|An|)/(Cat+|An|)  =   0.00
                               Iterations  =  23
                                  Total H  = 1.510124e+02
                                  Total O  = 7.561090e+01

----------------------------Distribution of species----------------------------

                                               Log       Log       Log    mole V
   Species          Molality    Activity  Molality  Activity     Gamma   cm3/mol

   OH-             6.654e-07   5.335e-07    -6.177    -6.273    -0.096     -4.45
   H+              3.123e-07   2.645e-07    -6.505    -6.578    -0.072      0.00
   H2O             5.551e+01   9.995e-01     1.744    -0.000     0.000     18.08
Ca            1.924e-02
   Ca+2            1.270e-02   5.753e-03    -1.896    -2.240    -0.344    -15.61
   CaSO4           6.534e-03   6.611e-03    -2.185    -2.180     0.005      9.06
   CaHSO4+         3.058e-08   2.481e-08    -7.515    -7.605    -0.091     (0)  
   CaOH+           4.447e-09   3.608e-09    -8.352    -8.443    -0.091     (0)  
H(0)          2.361e-33
   H2              1.180e-33   1.194e-33   -32.928   -32.923     0.005     28.44
O(0)          1.283e-16
   O2              6.415e-17   6.490e-17   -16.193   -16.188     0.005     31.70
S(-2)         0.000e+00
   HS-             0.000e+00   0.000e+00   -98.281   -98.377    -0.096     21.34
   H2S             0.000e+00   0.000e+00   -98.430   -98.425     0.005     36.71
   S-2             0.000e+00   0.000e+00  -102.977  -103.329    -0.352     (0)  
S(6)          1.924e-02
   SO4-2           1.270e-02   5.616e-03    -1.896    -2.251    -0.354     15.87
   CaSO4           6.534e-03   6.611e-03    -2.185    -2.180     0.005      9.06
   HSO4-           3.269e-07   2.653e-07    -6.486    -6.576    -0.091     40.81
   CaHSO4+         3.058e-08   2.481e-08    -7.515    -7.605    -0.091     (0)  

------------------------------Saturation indices-------------------------------

	Phase               SI   log IAP   log K(335 K, 334 atm)

	Anhydrite        -0.00     -4.49   -4.49  CaSO4
	Gypsum           -0.03     -4.49   -4.46  CaSO4:2H2O
	H2(g)           -29.78    -32.92   -3.14  H2
	H2O(g)           -0.57     -0.00    0.57  H2O
	H2S(g)          -97.32   -104.95   -7.64  H2S
	O2(g)           -12.93    -16.19   -3.26  O2
	Sulfur          -73.35    -68.94    4.41  S


Reaction step 5.

Using solution 1.	
Using pure phase assemblage 1.	
Using pressure 1.	

-------------------------------Phase assemblage--------------------------------

                                                      Moles in assemblage
Phase               SI  log IAP  log K(T, P)   Initial       Final       Delta

Anhydrite        -0.00    -4.41     -4.41    1.000e+01   1.997e+01   9.970e+00
Gypsum           -0.02    -4.42     -4.40    1.000e+01           0  -1.000e+01

-----------------------------Solution composition------------------------------

	Elements           Molality       Moles

	Ca                2.182e-02   2.969e-02
	S                 2.182e-02   2.969e-02

----------------------------Description of solution----------------------------

                                       pH  =   6.558      Charge balance
                                       pe  =   8.175      Adjusted to redox equilibrium
       Specific Conductance (uS/cm, 62 oC) = 5513
                          Density (g/cm3)  =   1.00369
                               Volume (L)  =   1.36123
                        Activity of water  =   0.999
                           Ionic strength  =   5.707e-02
                       Mass of water (kg)  =   1.360e+00
                 Total alkalinity (eq/kg)  =  -2.584e-16
                    Total carbon (mol/kg)  =   0.000e+00
                       Total CO2 (mol/kg)  =   0.000e+00
                      Temperature (deg C)  =  62.00
                           Pressure (atm)  = 445.00
                  Electrical balance (eq)  =  -2.244e-11
 Percent error, 100*(Cat-|An|)/(Cat+|An|)  =  -0.00
                               Iterations  =  36
                                  Total H  = 1.510124e+02
                                  Total O  = 7.562496e+01

----------------------------Distribution of species----------------------------

                                               Log       Log       Log    mole V
   Species          Molality    Activity  Molality  Activity     Gamma   cm3/mol

   OH-             7.034e-07   5.589e-07    -6.153    -6.253    -0.100     -4.63
   H+              3.286e-07   2.769e-07    -6.483    -6.558    -0.074      0.00
   H2O             5.551e+01   9.994e-01     1.744    -0.000     0.000     18.00
Ca            2.182e-02
   Ca+2            1.427e-02   6.286e-03    -1.846    -2.202    -0.356    -14.99
   CaSO4           7.554e-03   7.654e-03    -2.122    -2.116     0.006      9.24
   CaHSO4+         3.841e-08   3.093e-08    -7.416    -7.510    -0.094     (0)  
   CaOH+           4.676e-09   3.766e-09    -8.330    -8.424    -0.094     (0)  
H(0)          2.183e-33
   H2              1.092e-33   1.106e-33   -32.962   -32.956     0.006     28.40
O(0)          1.211e-16
   O2              6.057e-17   6.138e-17   -16.218   -16.212     0.006     31.47
S(-2)         0.000e+00
   HS-             0.000e+00   0.000e+00   -98.289   -98.389    -0.100     21.37
   H2S             0.000e+00   0.000e+00   -98.448   -98.443     0.006     36.56
   S-2             0.000e+00   0.000e+00  -102.861  -103.227    -0.365     (0)  
S(6)          2.182e-02
   SO4-2           1.427e-02   6.119e-03    -1.846    -2.213    -0.368     15.90
   CaSO4           7.554e-03   7.654e-03    -2.122    -2.116     0.006      9.24
   HSO4-           3.411e-07   2.747e-07    -6.467    -6.561    -0.094     40.59
   CaHSO4+         3.841e-08   3.093e-08    -7.416    -7.510    -0.094     (0)  

------------------------------Saturation indices-------------------------------

	Phase               SI   log IAP   log K(335 K, 445 atm)

	Anhydrite         0.00     -4.41   -4.41  CaSO4
	Gypsum           -0.01     -4.42   -4.40  CaSO4:2H2O
	H2(g)           -29.82    -32.96   -3.14  H2
	H2O(g)           -0.54     -0.00    0.54  H2O
	H2S(g)          -97.40   -104.95   -7.54  H2S
	O2(g)           -12.89    -16.21   -3.32  O2
	Sulfur          -73.48    -68.98    4.51  S


Reaction step 6.

Using solution 1.	
Using pure phase assemblage 1.	
Using pressure 1.	

-------------------------------Phase assemblage--------------------------------

                                                      Moles in assemblage
Phase               SI  log IAP  log K(T, P)   Initial       Final       Delta

Anhydrite        -0.01    -4.34     -4.34    1.000e+01   1.997e+01   9.966e+00
Gypsum           -0.00    -4.34     -4.34    1.000e+01           0  -1.000e+01

-----------------------------Solution composition------------------------------

	Elements           Molality       Moles

	Ca                2.471e-02   3.361e-02
	S                 2.471e-02   3.361e-02

----------------------------Description of solution----------------------------

                                       pH  =   6.538      Charge balance
                                       pe  =   8.330      Adjusted to redox equilibrium
       Specific Conductance (uS/cm, 62 oC) = 6101
                          Density (g/cm3)  =   1.00848
                               Volume (L)  =   1.35555
                        Activity of water  =   0.999
                           Ionic strength  =   6.394e-02
                       Mass of water (kg)  =   1.360e+00
                 Total alkalinity (eq/kg)  =  -2.445e-16
                    Total carbon (mol/kg)  =   0.000e+00
                       Total CO2 (mol/kg)  =   0.000e+00
                      Temperature (deg C)  =  62.00
                           Pressure (atm)  = 556.00
                  Electrical balance (eq)  =  -1.745e-14
 Percent error, 100*(Cat-|An|)/(Cat+|An|)  =  -0.00
                               Iterations  =  21
                                  Total H  = 1.510124e+02
                                  Total O  = 7.564066e+01

----------------------------Distribution of species----------------------------

                                               Log       Log       Log    mole V
   Species          Molality    Activity  Molality  Activity     Gamma   cm3/mol

   OH-             7.442e-07   5.860e-07    -6.128    -6.232    -0.104     -4.80
   H+              3.456e-07   2.899e-07    -6.461    -6.538    -0.076      0.00
   H2O             5.551e+01   9.993e-01     1.744    -0.000     0.000     17.92
Ca            2.471e-02
   Ca+2            1.599e-02   6.855e-03    -1.796    -2.164    -0.368    -14.40
   CaSO4           8.722e-03   8.851e-03    -2.059    -2.053     0.006      9.41
   CaHSO4+         4.800e-08   3.838e-08    -7.319    -7.416    -0.097     (0)  
   CaOH+           4.905e-09   3.922e-09    -8.309    -8.406    -0.097     (0)  
H(0)          1.045e-33
   H2              5.223e-34   5.300e-34   -33.282   -33.276     0.006     28.36
O(0)          4.276e-16
   O2              2.138e-16   2.170e-16   -15.670   -15.664     0.006     31.27
S(-2)         0.000e+00
   HS-             0.000e+00   0.000e+00   -99.442   -99.546    -0.104     21.40
   H2S             0.000e+00   0.000e+00   -99.611   -99.605     0.006     36.41
   S-2             0.000e+00   0.000e+00  -103.892  -104.271    -0.378     (0)  
S(6)          2.471e-02
   SO4-2           1.599e-02   6.651e-03    -1.796    -2.177    -0.381     15.93
   CaSO4           8.722e-03   8.851e-03    -2.059    -2.053     0.006      9.41
   HSO4-           3.555e-07   2.842e-07    -6.449    -6.546    -0.097     40.39
   CaHSO4+         4.800e-08   3.838e-08    -7.319    -7.416    -0.097     (0)  

------------------------------Saturation indices-------------------------------

	Phase               SI   log IAP   log K(335 K, 556 atm)

	Anhydrite        -0.00     -4.34   -4.34  CaSO4
	Gypsum           -0.00     -4.34   -4.34  CaSO4:2H2O
	H2(g)           -30.14    -33.28   -3.14  H2
	H2O(g)           -0.51     -0.00    0.51  H2O
	H2S(g)          -98.64   -106.08   -7.45  H2S
	O2(g)           -12.28    -15.66   -3.38  O2
	Sulfur          -74.47    -69.87    4.60  S


Reaction step 7.

Using solution 1.	
Using pure phase assemblage 1.	
Using pressure 1.	

-------------------------------Phase assemblage--------------------------------

                                                      Moles in assemblage
Phase               SI  log IAP  log K(T, P)   Initial       Final       Delta

Anhydrite        -0.02    -4.28     -4.26    1.000e+01           0  -1.000e+01
Gypsum           -0.00    -4.28     -4.28    1.000e+01   1.998e+01   9.983e+00

-----------------------------Solution composition------------------------------

	Elements           Molality       Moles

	Ca                2.731e-02   1.749e-02
	S                 2.731e-02   1.749e-02

----------------------------Description of solution----------------------------

                                       pH  =   6.516      Charge balance
                                       pe  =   8.298      Adjusted to redox equilibrium
       Specific Conductance (uS/cm, 62 oC) = 6624
                          Density (g/cm3)  =   1.01314
                               Volume (L)  =   0.63546
                        Activity of water  =   0.999
                           Ionic strength  =   7.010e-02
                       Mass of water (kg)  =   6.403e-01
                 Total alkalinity (eq/kg)  =  -5.202e-16
                    Total carbon (mol/kg)  =   0.000e+00
                       Total CO2 (mol/kg)  =   0.000e+00
                      Temperature (deg C)  =  62.00
                           Pressure (atm)  = 667.00
                  Electrical balance (eq)  =  -6.349e-16
 Percent error, 100*(Cat-|An|)/(Cat+|An|)  =  -0.00
                               Iterations  =  38
                                  Total H  = 7.108238e+01
                                  Total O  = 3.561114e+01

----------------------------Distribution of species----------------------------

                                               Log       Log       Log    mole V
   Species          Molality    Activity  Molality  Activity     Gamma   cm3/mol

   OH-             7.836e-07   6.125e-07    -6.106    -6.213    -0.107     -4.96
   H+              3.644e-07   3.045e-07    -6.438    -6.516    -0.078      0.00
   H2O             5.551e+01   9.992e-01     1.744    -0.000     0.000     17.85
Ca            2.731e-02
   Ca+2            1.752e-02   7.357e-03    -1.756    -2.133    -0.377    -13.86
   CaSO4           9.787e-03   9.946e-03    -2.009    -2.002     0.007      9.57
   CaHSO4+         5.824e-08   4.630e-08    -7.235    -7.334    -0.100     (0)  
   CaOH+           5.040e-09   4.007e-09    -8.298    -8.397    -0.100     (0)  
H(0)          1.187e-33
   H2              5.933e-34   6.030e-34   -33.227   -33.220     0.007     28.32
O(0)          2.680e-16
   O2              1.340e-16   1.362e-16   -15.873   -15.866     0.007     31.08
S(-2)         0.000e+00
   HS-             0.000e+00   0.000e+00   -99.099   -99.206    -0.107     21.42
   H2S             0.000e+00   0.000e+00   -99.275   -99.268     0.007     36.28
   S-2             0.000e+00   0.000e+00  -103.431  -103.820    -0.388     (0)  
S(6)          2.731e-02
   SO4-2           1.752e-02   7.118e-03    -1.756    -2.148    -0.391     15.96
   CaSO4           9.787e-03   9.946e-03    -2.009    -2.002     0.007      9.57
   HSO4-           3.660e-07   2.910e-07    -6.437    -6.536    -0.100     40.21
   CaHSO4+         5.824e-08   4.630e-08    -7.235    -7.334    -0.100     (0)  

------------------------------Saturation indices-------------------------------

	Phase               SI   log IAP   log K(335 K, 667 atm)

	Anhydrite        -0.01     -4.28   -4.27  CaSO4
	Gypsum           -0.00     -4.28   -4.28  CaSO4:2H2O
	H2(g)           -30.08    -33.22   -3.14  H2
	H2O(g)           -0.48     -0.00    0.48  H2O
	H2S(g)          -98.37   -105.72   -7.35  H2S
	O2(g)           -12.42    -15.87   -3.45  O2
	Sulfur          -74.33    -69.64    4.70  S


Reaction step 8.

Using solution 1.	
Using pure phase assemblage 1.	
Using pressure 1.	

-------------------------------Phase assemblage--------------------------------

                                                      Moles in assemblage
Phase               SI  log IAP  log K(T, P)   Initial       Final       Delta

Anhydrite        -0.03    -4.22     -4.19    1.000e+01           0  -1.000e+01
Gypsum           -0.00    -4.22     -4.22    1.000e+01   1.998e+01   9.981e+00

-----------------------------Solution composition------------------------------

	Elements           Molality       Moles

	Ca                3.014e-02   1.930e-02
	S                 3.014e-02   1.930e-02

----------------------------Description of solution----------------------------

                                       pH  =   6.495      Charge balance
                                       pe  =   8.315      Adjusted to redox equilibrium
       Specific Conductance (uS/cm, 62 oC) = 7176
                          Density (g/cm3)  =   1.01774
                               Volume (L)  =   0.63301
                        Activity of water  =   0.999
                           Ionic strength  =   7.666e-02
                       Mass of water (kg)  =   6.404e-01
                 Total alkalinity (eq/kg)  =  -5.257e-16
                    Total carbon (mol/kg)  =   0.000e+00
                       Total CO2 (mol/kg)  =   0.000e+00
                      Temperature (deg C)  =  62.00
                           Pressure (atm)  = 778.00
                  Electrical balance (eq)  =   1.800e-13
 Percent error, 100*(Cat-|An|)/(Cat+|An|)  =   0.00
                               Iterations  =  49
                                  Total H  = 7.108963e+01
                                  Total O  = 3.562201e+01

----------------------------Distribution of species----------------------------

                                               Log       Log       Log    mole V
   Species          Molality    Activity  Molality  Activity     Gamma   cm3/mol

   OH-             8.255e-07   6.407e-07    -6.083    -6.193    -0.110     -5.10
   H+              3.840e-07   3.197e-07    -6.416    -6.495    -0.080      0.00
   H2O             5.551e+01   9.992e-01     1.744    -0.000     0.000     17.77
Ca            3.014e-02
   Ca+2            1.917e-02   7.882e-03    -1.717    -2.103    -0.386    -13.35
   CaSO4           1.097e-02   1.117e-02    -1.960    -1.952     0.008      9.72
   CaHSO4+         7.036e-08   5.564e-08    -7.153    -7.255    -0.102     (0)  
   CaOH+           5.170e-09   4.088e-09    -8.286    -8.388    -0.102     (0)  
H(0)          1.080e-33
   H2              5.399e-34   5.495e-34   -33.268   -33.260     0.008     28.29
O(0)          2.619e-16
   O2              1.309e-16   1.333e-16   -15.883   -15.875     0.008     30.90
S(-2)         0.000e+00
   HS-             0.000e+00   0.000e+00   -99.141   -99.251    -0.110     21.45
   H2S             0.000e+00   0.000e+00   -99.324   -99.316     0.008     36.15
   S-2             0.000e+00   0.000e+00  -103.357  -103.755    -0.399     (0)  
S(6)          3.014e-02
   SO4-2           1.917e-02   7.602e-03    -1.717    -2.119    -0.402     15.99
   CaSO4           1.097e-02   1.117e-02    -1.960    -1.952     0.008      9.72
   HSO4-           3.764e-07   2.976e-07    -6.424    -6.526    -0.102     40.04
   CaHSO4+         7.036e-08   5.564e-08    -7.153    -7.255    -0.102     (0)  

------------------------------Saturation indices-------------------------------

	Phase               SI   log IAP   log K(335 K, 778 atm)

	Anhydrite        -0.02     -4.22   -4.20  CaSO4
	Gypsum            0.00     -4.22   -4.22  CaSO4:2H2O
	H2(g)           -30.12    -33.26   -3.14  H2
	H2O(g)           -0.45     -0.00    0.45  H2O
	H2S(g)          -98.49   -105.75   -7.26  H2S
	O2(g)           -12.37    -15.88   -3.51  O2
	Sulfur          -74.48    -69.70    4.79  S


Reaction step 9.

Using solution 1.	
Using pure phase assemblage 1.	
Using pressure 1.	

-------------------------------Phase assemblage--------------------------------

                                                      Moles in assemblage
Phase               SI  log IAP  log K(T, P)   Initial       Final       Delta

Anhydrite        -0.04    -4.16     -4.12    1.000e+01           0  -1.000e+01
Gypsum           -0.01    -4.17     -4.16    1.000e+01   1.998e+01   9.979e+00

-----------------------------Solution composition------------------------------

	Elements           Molality       Moles

	Ca                3.323e-02   2.128e-02
	S                 3.323e-02   2.128e-02

----------------------------Description of solution----------------------------

                                       pH  =   6.474      Charge balance
                                       pe  =   8.356      Adjusted to redox equilibrium
       Specific Conductance (uS/cm, 62 oC) = 7763
                          Density (g/cm3)  =   1.02229
                               Volume (L)  =   0.63065
                        Activity of water  =   0.999
                           Ionic strength  =   8.373e-02
                       Mass of water (kg)  =   6.404e-01
                 Total alkalinity (eq/kg)  =  -7.934e-17
                    Total carbon (mol/kg)  =   0.000e+00
                       Total CO2 (mol/kg)  =   0.000e+00
                      Temperature (deg C)  =  62.00
                           Pressure (atm)  = 889.00
                  Electrical balance (eq)  =  -3.978e-10
 Percent error, 100*(Cat-|An|)/(Cat+|An|)  =  -0.00
                               Iterations  =  67
                                  Total H  = 7.109756e+01
                                  Total O  = 3.563391e+01

----------------------------Distribution of species----------------------------

                                               Log       Log       Log    mole V
   Species          Molality    Activity  Molality  Activity     Gamma   cm3/mol

   OH-             8.705e-07   6.708e-07    -6.060    -6.173    -0.113     -5.22
   H+              4.043e-07   3.355e-07    -6.393    -6.474    -0.081      0.00
   H2O             5.551e+01   9.991e-01     1.744    -0.000     0.000     17.70
Ca            3.323e-02
   Ca+2            2.093e-02   8.436e-03    -1.679    -2.074    -0.395    -12.87
   CaSO4           1.230e-02   1.254e-02    -1.910    -1.902     0.008      9.86
   CaHSO4+         8.473e-08   6.664e-08    -7.072    -7.176    -0.104     (0)  
   CaOH+           5.301e-09   4.169e-09    -8.276    -8.380    -0.104     (0)  
H(0)          8.759e-34
   H2              4.379e-34   4.465e-34   -33.359   -33.350     0.008     28.26
O(0)          3.220e-16
   O2              1.610e-16   1.641e-16   -15.793   -15.785     0.008     30.73
S(-2)         0.000e+00
   HS-             0.000e+00   0.000e+00   -99.383   -99.496    -0.113     21.47
   H2S             0.000e+00   0.000e+00   -99.572   -99.564     0.008     36.04
   S-2             0.000e+00   0.000e+00  -103.483  -103.891    -0.408     (0)  
S(6)          3.323e-02
   SO4-2           2.093e-02   8.109e-03    -1.679    -2.091    -0.412     16.03
   CaSO4           1.230e-02   1.254e-02    -1.910    -1.902     0.008      9.86
   HSO4-           3.868e-07   3.042e-07    -6.413    -6.517    -0.104     39.88
   CaHSO4+         8.473e-08   6.664e-08    -7.072    -7.176    -0.104     (0)  

------------------------------Saturation indices-------------------------------

	Phase               SI   log IAP   log K(335 K, 889 atm)

	Anhydrite        -0.04     -4.16   -4.13  CaSO4
	Gypsum           -0.00     -4.17   -4.17  CaSO4:2H2O
	H2(g)           -30.21    -33.35   -3.14  H2
	H2O(g)           -0.42     -0.00    0.42  H2O
	H2S(g)          -98.80   -105.97   -7.17  H2S
	O2(g)           -12.22    -15.78   -3.57  O2
	Sulfur          -74.78    -69.90    4.88  S


Reaction step 10.

Using solution 1.	
Using pure phase assemblage 1.	
Using pressure 1.	

-------------------------------Phase assemblage--------------------------------

                                                      Moles in assemblage
Phase               SI  log IAP  log K(T, P)   Initial       Final       Delta

Anhydrite        -0.05    -4.11     -4.05    1.000e+01           0  -1.000e+01
Gypsum           -0.01    -4.11     -4.10    1.000e+01   1.998e+01   9.977e+00

-----------------------------Solution composition------------------------------

	Elements           Molality       Moles

	Ca                3.662e-02   2.345e-02
	S                 3.662e-02   2.345e-02

----------------------------Description of solution----------------------------

                                       pH  =   6.454      Charge balance
                                       pe  =   8.785      Adjusted to redox equilibrium
       Specific Conductance (uS/cm, 62 oC) = 8389
                          Density (g/cm3)  =   1.02679
                               Volume (L)  =   0.62838
                        Activity of water  =   0.999
                           Ionic strength  =   9.132e-02
                       Mass of water (kg)  =   6.405e-01
                 Total alkalinity (eq/kg)  =  -5.312e-16
                    Total carbon (mol/kg)  =   0.000e+00
                       Total CO2 (mol/kg)  =   0.000e+00
                      Temperature (deg C)  =  62.00
                           Pressure (atm)  = 1000.00
                  Electrical balance (eq)  =   3.504e-16
 Percent error, 100*(Cat-|An|)/(Cat+|An|)  =   0.00
                               Iterations  =  23
                                  Total H  = 7.110625e+01
                                  Total O  = 3.564695e+01

----------------------------Distribution of species----------------------------

                                               Log       Log       Log    mole V
   Species          Molality    Activity  Molality  Activity     Gamma   cm3/mol

   OH-             9.187e-07   7.029e-07    -6.037    -6.153    -0.116     -5.34
   H+              4.253e-07   3.518e-07    -6.371    -6.454    -0.082      0.00
   H2O             5.551e+01   9.990e-01     1.744    -0.000     0.000     17.63
Ca            3.662e-02
   Ca+2            2.283e-02   9.019e-03    -1.642    -2.045    -0.403    -12.42
   CaSO4           1.379e-02   1.408e-02    -1.860    -1.851     0.009      9.99
   CaHSO4+         1.017e-07   7.959e-08    -6.993    -7.099    -0.107     (0)  
   CaOH+           5.433e-09   4.251e-09    -8.265    -8.372    -0.107     (0)  
H(0)          1.191e-34
   H2              5.957e-35   6.084e-35   -34.225   -34.216     0.009     28.23
O(0)          1.408e-14
   O2              7.040e-15   7.189e-15   -14.152   -14.143     0.009     30.57
S(-2)         0.000e+00
   HS-             0.000e+00   0.000e+00  -102.727  -102.843    -0.116     21.50
   H2S             0.000e+00   0.000e+00  -102.923  -102.914     0.009     35.93
   S-2             0.000e+00   0.000e+00  -106.711  -107.130    -0.418     (0)  
S(6)          3.662e-02
   SO4-2           2.283e-02   8.639e-03    -1.642    -2.064    -0.422     16.07
   CaSO4           1.379e-02   1.408e-02    -1.860    -1.851     0.009      9.99
   HSO4-           3.971e-07   3.107e-07    -6.401    -6.508    -0.107     39.73
   CaHSO4+         1.017e-07   7.959e-08    -6.993    -7.099    -0.107     (0)  

------------------------------Saturation indices-------------------------------

	Phase               SI   log IAP   log K(335 K, 1000 atm)

	Anhydrite        -0.05     -4.11   -4.06  CaSO4
	Gypsum            0.00     -4.11   -4.11  CaSO4:2H2O
	H2(g)           -31.08    -34.22   -3.14  H2
	H2O(g)           -0.39     -0.00    0.39  H2O
	H2S(g)         -102.22   -109.30   -7.08  H2S
	O2(g)           -10.52    -14.14   -3.63  O2
	Sulfur          -77.41    -72.44    4.97  S


------------------
End of simulation.
------------------

------------------------------------
Reading input data for simulation 2.
------------------------------------

------------------------------
End of Run after 0.06 Seconds.
------------------------------

