   Input file: H2S_numerical
  Output file: H2S_numerical.out
Database file: ../database/Amm.dat

------------------
Reading data base.
------------------

	SOLUTION_MASTER_SPECIES
	SOLUTION_SPECIES
	PHASES
	EXCHANGE_MASTER_SPECIES
	EXCHANGE_SPECIES
	SURFACE_MASTER_SPECIES
	SURFACE_SPECIES
	RATES
	END
------------------------------------
Reading input data for simulation 1.
------------------------------------

	DATABASE ../database/Amm.dat
	SELECTED_OUTPUT 101
	    file                 H2S_numerical_101.sel
	USER_PUNCH 101
	    headings Mu SC
	    start
	10 PUNCH STR_F$(MU, 20, 12)
	20 PUNCH STR_F$(SC, 20, 10)
	    end
	KNOBS
	numerical_derivatives
	INCREMENTAL_REACTIONS true
	REACTION_TEMPERATURE 15
	0, 5, 10, 15, 20, 25, 30, 35, 40, 50, 60, 70, 80, 90, 94
	REACTION_TEMPERATURE 5
	30, 60, 90, 120, 150
	REACTION_TEMPERATURE 6
	30, 60, 90, 120, 150, 180
	REACTION_TEMPERATURE 7
	30, 60, 90, 120, 150, 180, 210
	REACTION_TEMPERATURE 8
	30, 60, 90, 120, 150, 180, 210, 240
	REACTION_TEMPERATURE 10
	30, 60, 90, 120, 150, 180, 210, 240, 270, 300
	REACTION_TEMPERATURE 101
	30, 60, 90, 120, 150, 180, 210, 240, 270, 295
	SOLUTION 2
	pH 7 charge
	USE solution none
	END
-------------------------------------------
Beginning of initial solution calculations.
-------------------------------------------

Initial solution 2.	

-----------------------------Solution composition------------------------------

	Elements           Molality       Moles

	Pure water     

----------------------------Description of solution----------------------------

                                       pH  =   6.997      Charge balance
                                       pe  =   4.000    
      Specific Conductance (µS/cm,  25°C)  = 0
                          Density (g/cm³)  =   0.99704
                               Volume (L)  =   1.00297
                        Activity of water  =   1.000
                 Ionic strength (mol/kgw)  =   1.006e-07
                       Mass of water (kg)  =   1.000e+00
                 Total alkalinity (eq/kg)  =   7.940e-16
                         Temperature (°C)  =  25.00
                  Electrical balance (eq)  =  -7.940e-16
 Percent error, 100*(Cat-|An|)/(Cat+|An|)  =  -0.00
                               Iterations  =  25
                                  Total H  = 1.110124e+02
                                  Total O  = 5.550622e+01

----------------------------Distribution of species----------------------------

                                               Log       Log       Log    mole V
   Species          Molality    Activity  Molality  Activity     Gamma   cm³/mol

   OH-             1.006e-07   1.006e-07    -6.997    -6.997    -0.000     -4.14
   H+              1.006e-07   1.006e-07    -6.997    -6.997    -0.000      0.00
   H2O             5.551e+01   1.000e+00     1.744    -0.000     0.000     18.07
H(0)          1.433e-25
   H2              7.166e-26   7.166e-26   -25.145   -25.145     0.000     28.61
O(0)          0.000e+00
   O2              0.000e+00   0.000e+00   -42.090   -42.090     0.000     30.40

------------------------------Saturation indices-------------------------------

  Phase               SI** log IAP   log K(298 K,   1 atm)

  H2(g)           -22.04    -25.14   -3.10  H2
  H2O(g)           -1.50     -0.00    1.50  H2O
  O2(g)           -39.20    -42.09   -2.89  O2

**For a gas, SI = log10(fugacity). Fugacity = pressure * phi / 1 atm.
  For ideal gases, phi = 1.

------------------
End of simulation.
------------------

------------------------------------
Reading input data for simulation 2.
------------------------------------

	SOLUTION 1
	 water 1
	 pH 7 charge
	 Sg 9e3
	SELECTED_OUTPUT 2
	 reset false
	 file H2S_numerical.pqi
	 new_line false
	USER_PUNCH 2
	10    sc$ = chr$(59) : hs$ = ' ' + chr$(35) + ' '
	20    data '  1    ', '  29.6 ', '  49.3 ', '  98.7 ', ' 148.0  ', ' 197.4 ', ' 246.7 ', ' 296.1 ', ' 345.4 ', ' 394.8 ', ' 444.1 ', ' 493.5 ', ' 542.8 ', ' 592.1 ', ' 641.5 ', ' 690.8 ', ' 740.2 ', ' 789.5 ', ' 888.2 ', ' 986.9 '
	30    dim p$(20) : for i = 1 to 20 : read p$(i) : next i
	40    data 15, 7, 8, 101, 10, 10, 10, 7, 6, 6, 6, 6, 6, 6, 5, 5, 5, 5, 5, 5
	50    dim t(20) : for i = 1 to 20 : read t(i) : next i
	60    gp$ = 'GAS_PHASE 1' + sc$ + ' -fixed_pr' + sc$ + ' -vol 0.01' + sc$ + 'H2Sg(g) 0' + sc$ + 'H2O(g) 0' + sc$ + ' -pr '
	62    gp2$ = 'GAS_PHASE 1' + sc$ + ' -fixed_pr' + sc$ + ' -vol 0.01' + sc$ + 'H2Sg(g) 0' + sc$ + 'H2O(g) 0' + sc$ + 'Ntg(g) 100' + sc$ + ' -pr '
	70    for i = 1 to 20
	80      punch eol$ + 'USE solution 1' + sc$ + ' USE reaction_temperature ' + str_f$(t(i), 1, 0)
	90      if i < 5 then punch eol$ + gp$ + p$(i) else punch eol$ + gp$ + p$(i)
	92      if i > 1 then punch eol$ + 'USER_GRAPH 1' + sc$ + ' -headings x' #+ p$(i)
	100     punch eol$ + 'END'
	110   next i
	END
-------------------------------------------
Beginning of initial solution calculations.
-------------------------------------------

Initial solution 1.	

WARNING: USER_PUNCH: Headings count does not match number of calls to PUNCH.

-----------------------------Solution composition------------------------------

	Elements           Molality       Moles

	Sg                9.000e+00   9.000e+00

----------------------------Description of solution----------------------------

                                       pH  =   3.095      Charge balance
                                       pe  =   4.000    
      Specific Conductance (µS/cm,  25°C)  = 340
                          Density (g/cm³)  =   1.05302
                               Volume (L)  =   1.25815
                        Activity of water  =   0.876
                 Ionic strength (mol/kgw)  =   8.295e-04
                       Mass of water (kg)  =   1.000e+00
                 Total alkalinity (eq/kg)  =   9.000e+00
                         Temperature (°C)  =  25.00
                  Electrical balance (eq)  =  -5.548e-12
 Percent error, 100*(Cat-|An|)/(Cat+|An|)  =  -0.00
                               Iterations  =  52
                                  Total H  = 1.290124e+02
                                  Total O  = 5.550622e+01

----------------------------Distribution of species----------------------------

                                               Log       Log       Log    mole V
   Species          Molality    Activity  Molality  Activity     Gamma   cm³/mol

   H+              8.295e-04   8.041e-04    -3.081    -3.095    -0.014      0.00
   OH-             1.139e-11   1.102e-11   -10.944   -10.958    -0.014     -4.11
   H2O             5.551e+01   8.755e-01     1.744    -0.058     0.000     18.07
H(0)          9.152e-18
   H2              4.576e-18   4.577e-18   -17.340   -17.339     0.000     28.61
O(0)          0.000e+00
   O2              0.000e+00   0.000e+00   -57.817   -57.817     0.000     30.40
Sg            9.000e+00
   H2Sg            5.643e+00   5.644e+00     0.751     0.752     0.000     36.27
   (H2Sg)2         1.678e+00   1.679e+00     0.225     0.225     0.000     30.09
   HSg-            8.295e-04   8.028e-04    -3.081    -3.095    -0.014     20.60

------------------------------Saturation indices-------------------------------

  Phase               SI** log IAP   log K(298 K,   1 atm)

  H2(g)           -14.24    -17.34   -3.10  H2
  H2O(g)           -1.56     -0.06    1.50  H2O
  H2Sg(g)           1.75     -6.19   -7.94  H2Sg
  O2(g)           -54.92    -57.82   -2.89  O2

**For a gas, SI = log10(fugacity). Fugacity = pressure * phi / 1 atm.
  For ideal gases, phi = 1.

------------------
End of simulation.
------------------

------------------------------------
Reading input data for simulation 3.
------------------------------------

	SELECTED_OUTPUT 2
	 active false
	SELECTED_OUTPUT 1
	 reset false
	 file H2S_numerical.in.pqi
	 new_line false
	USER_PUNCH 1
	headings dif '' number.....tc.....P_calc..m_obs..m_calc
	10  if get(1) = 0 then put(1, 1)
	20  data 0.205, 0.174, 0.147, 0.127, 0.111, 0.097, 0.086, 0.076, 0.068, 0.054, 0.043, 0.031, 0.021, 0.011, 0.008, 1.932, 1.4483, 1.0793, 0.8461, 0.6825, 0.5223, 0.306, 1.9613, 2.1741, 1.842, 1.4887, 1.2722, 1.0691, 0.819, 0.4494, 1.9701, 2.2091, 2.5341, 2.753, 2.7876, 2.5869, 2.3883, 2.0201, 1.4239, 0.676, 2.0242, 2.2403, 2.6089, 3.1645, 3.6322, 3.8084, 3.8235, 3.6576, 3.2501, 2.5257, 2.0638, 2.3276, 2.7037, 3.5511, 3.5511, 3.5511, 5.3284, 5.5584, 5.4757, 4.874, 2.1094, 2.4236, 2.7872, 3.6007, 4.6227, 5.4793, 6.3812, 7.0389, 7.2365, 7.2987, 2.1546, 2.4581, 2.8515, 3.6984, 4.9065, 5.8992, 7.8033,  2.187, 2.4922, 2.9082, 3.7183, 5.2602, 6.5191,  2.2314, 2.5637, 2.986, 3.7918, 5.5007, 6.9683, 2.3262, 2.6256, 3.2248, 4.2306, 5.7343, 7.355, 2.3789, 2.6693, 3.2946, 4.3223, 5.9335, 7.705, 2.4056, 2.7116, 3.3599, 4.4433, 6.1232, 8.0869, 2.5025, 2.7524, 3.4157, 4.5237, 6.3934, 8.4285, 2.5239, 2.7848, 3.4541, 4.5971, 6.5064, 2.554, 2.8484, 3.5112, 4.7119, 6.6309, 2.6049, 2.8835, 3.5788, 4.7674, 6.8413, 2.6155, 2.931, 3.6326, 4.8544, 7.0222, 2.7046, 3.0362, 3.7248, 5.003, 7.4328, 2.7956, 3.08, 3.8067, 5.1491, 7.6829
	30  no = get(1)
	40  dim mo(150) : restore 20 : for i = 1 to no : read mo(i) : next i : i = no
	50  pc = pressure : s = tot("Sg") : dif = (s / mo(i) - 1) * 1 #: if pressure < 190 then dif = 0
	60  punch eol$ + str_e$(dif, 20, 13), ' ', str_f$(i, 1, 0) + str_f$(tc, 5, 0) + str_f$(pc, 8, 2) + str_f$(mo(i), 8, 3) + str_f$(s, 8, 3) : put(get(2) + dif^2, 2)
	70  put(no + 1, 1)
	160 if no = 143 then punch " phi =", get(2)
	end
	USER_GRAPH 1 H2S solubility in water, data from Jiang et al., 2020

	Reading data from H2S_numerical.pqi ...
	 -plot_csv_file H2S.dat
	 -axis_titles "Temperature / Celsius" "H2S / (mol/kgw)"
	 -axis_scale x_axis 0 310
	 -axis_scale sy_axis 0 9
	 -connect_simulations false
	 10 graph_x tc 
	 20 y = tot("Sg") : if pressure < 2 then y = y * 10 : graph_sy y : end
	 40 data 0, 0, 0, 4, 5, 6, 7, 8, 9, 0, 0, 0, 13, 0, 0, 0, 0, 18, 0, 0, 0, 22
	 50 if sim_no > no then no = sim_no : dim p(30) : restore 40 : for i = 1 to no : read p(i) : next i
	 60 if no = p(no) then graph_sy y
	 -end
	USE solution 1
	 USE reaction_temperature 15	
	GAS_PHASE 1
	 fixed_pressure
	 volume 0.01
	H2Sg(g) 0
	H2O(g) 0
	 pressure   1    	        
	END	
-----------------------------------------
Beginning of batch-reaction calculations.
-----------------------------------------

Reaction step 1.

Using solution 1.	
Using gas phase 1.	
Using temperature 15.	

-----------------------------------Gas phase-----------------------------------

Total pressure:  1.00      atmospheres          (Peng-Robinson calculation)
    Gas volume:   1.96e+02 liters
  Molar volume:   2.22e+01 liters/mole
   P * Vm / RT:  0.98991  (Compressibility Factor Z) 

                                                        Moles in gas
                                            ----------------------------------
Component         log P           P    phi     Initial       Final       Delta

H2O(g)            -2.21   6.223e-03  0.988   0.000e+00   5.500e-02   5.500e-02
H2Sg(g)           -0.00   9.938e-01  0.990   0.000e+00   8.783e+00   8.783e+00

-----------------------------Solution composition------------------------------

	Elements           Molality       Moles

	Sg                2.169e-01   2.167e-01

----------------------------Description of solution----------------------------

                                       pH  =   4.010      Charge balance
                                       pe  =   2.012      Adjusted to redox equilibrium
      Specific Conductance (µS/cm,   0°C)  = 26
                          Density (g/cm³)  =   1.00185
                               Volume (L)  =   1.00497
                        Activity of water  =   0.996
                 Ionic strength (mol/kgw)  =   9.877e-05
                       Mass of water (kg)  =   9.990e-01
                 Total alkalinity (eq/kg)  =   2.169e-01
                         Temperature (°C)  =   0.00
                  Electrical balance (eq)  =  -5.418e-12
 Percent error, 100*(Cat-|An|)/(Cat+|An|)  =  -0.00
                               Iterations  =  59
                                  Total H  = 1.113357e+02
                                  Total O  = 5.545122e+01

----------------------------Distribution of species----------------------------

                                               Log       Log       Log    mole V
   Species          Molality    Activity  Molality  Activity     Gamma   cm³/mol

   H+              9.877e-05   9.770e-05    -4.005    -4.010    -0.005      0.00
   OH-             1.188e-11   1.175e-11   -10.925   -10.930    -0.005     -6.19
   H2O             5.551e+01   9.963e-01     1.744    -0.002     0.000     18.02
H(0)          1.676e-15
   H2              8.382e-16   8.382e-16   -15.077   -15.077     0.000     28.65
O(0)          0.000e+00
   O2              0.000e+00   0.000e+00   -71.036   -71.036     0.000     27.49
Sg            2.169e-01
   H2Sg            2.145e-01   2.145e-01    -0.669    -0.669     0.000     26.92
   (H2Sg)2         1.136e-03   1.136e-03    -2.945    -2.945     0.000     30.91
   HSg-            9.877e-05   9.768e-05    -4.005    -4.010    -0.005     18.40

------------------------------Saturation indices-------------------------------

  Phase               SI** log IAP   log K(273 K,   1 atm)

  H2(g)           -12.07    -15.08   -3.01  H2
  H2O(g)           -2.21     -0.00    2.21  H2O	 Pressure   0.0 atm, phi 0.988
  H2Sg(g)          -0.01     -8.02   -8.01  H2Sg	 Pressure   1.0 atm, phi 0.990
  O2(g)           -68.38    -71.04   -2.66  O2

**For a gas, SI = log10(fugacity). Fugacity = pressure * phi / 1 atm.
  For ideal gases, phi = 1.

Reaction step 2.

Using solution 1.	
Using gas phase 1.	
Using temperature 15.	

-----------------------------------Gas phase-----------------------------------

Total pressure:  1.00      atmospheres          (Peng-Robinson calculation)
    Gas volume:   2.01e+02 liters
  Molar volume:   2.26e+01 liters/mole
   P * Vm / RT:  0.99037  (Compressibility Factor Z) 

                                                        Moles in gas
                                            ----------------------------------
Component         log P           P    phi     Initial       Final       Delta

H2O(g)            -2.05   8.843e-03  0.988   5.500e-02   7.868e-02   2.368e-02
H2Sg(g)           -0.00   9.912e-01  0.990   8.783e+00   8.819e+00   3.533e-02

-----------------------------Solution composition------------------------------

	Elements           Molality       Moles

	Sg                1.816e-01   1.813e-01

----------------------------Description of solution----------------------------

                                       pH  =   4.000      Charge balance
                                       pe  =   0.182      Adjusted to redox equilibrium
      Specific Conductance (µS/cm,   5°C)  = 30
                          Density (g/cm³)  =   1.00118
                               Volume (L)  =   1.00394
                        Activity of water  =   0.997
                 Ionic strength (mol/kgw)  =   1.010e-04
                       Mass of water (kg)  =   9.986e-01
                 Total alkalinity (eq/kg)  =   1.816e-01
                         Temperature (°C)  =   5.00
                  Electrical balance (eq)  =  -6.414e-12
 Percent error, 100*(Cat-|An|)/(Cat+|An|)  =  -0.00
                               Iterations  =  34
                                  Total H  = 1.112177e+02
                                  Total O  = 5.542754e+01

----------------------------Distribution of species----------------------------

                                               Log       Log       Log    mole V
   Species          Molality    Activity  Molality  Activity     Gamma   cm³/mol

   H+              1.010e-04   9.990e-05    -3.996    -4.000    -0.005      0.00
   OH-             1.881e-11   1.860e-11   -10.726   -10.730    -0.005     -5.53
   H2O             5.551e+01   9.969e-01     1.744    -0.001     0.000     18.02
H(0)          7.560e-12
   H2              3.780e-12   3.780e-12   -11.422   -11.422     0.000     28.63
O(0)          0.000e+00
   O2              0.000e+00   0.000e+00   -76.456   -76.456     0.000     28.29
Sg            1.816e-01
   H2Sg            1.796e-01   1.796e-01    -0.746    -0.746     0.000     29.51
   (H2Sg)2         9.475e-04   9.475e-04    -3.023    -3.023     0.000     30.79
   HSg-            1.010e-04   9.988e-05    -3.996    -4.001    -0.005     19.07

------------------------------Saturation indices-------------------------------

  Phase               SI** log IAP   log K(278 K,   1 atm)

  H2(g)            -8.39    -11.42   -3.03  H2
  H2O(g)           -2.06     -0.00    2.06  H2O	 Pressure   0.0 atm, phi 0.988
  H2Sg(g)          -0.01     -8.00   -7.99  H2Sg	 Pressure   1.0 atm, phi 0.990
  O2(g)           -73.74    -76.46   -2.71  O2

**For a gas, SI = log10(fugacity). Fugacity = pressure * phi / 1 atm.
  For ideal gases, phi = 1.

Reaction step 3.

Using solution 1.	
Using gas phase 1.	
Using temperature 15.	

-----------------------------------Gas phase-----------------------------------

Total pressure:  1.00      atmospheres          (Peng-Robinson calculation)
    Gas volume:   2.06e+02 liters
  Molar volume:   2.30e+01 liters/mole
   P * Vm / RT:  0.99081  (Compressibility Factor Z) 

                                                        Moles in gas
                                            ----------------------------------
Component         log P           P    phi     Initial       Final       Delta

H2O(g)            -1.91   1.240e-02  0.989   7.868e-02   1.110e-01   3.236e-02
H2Sg(g)           -0.01   9.876e-01  0.991   8.819e+00   8.847e+00   2.795e-02

-----------------------------Solution composition------------------------------

	Elements           Molality       Moles

	Sg                1.537e-01   1.534e-01

----------------------------Description of solution----------------------------

                                       pH  =   3.992      Charge balance
                                       pe  =   0.178      Adjusted to redox equilibrium
      Specific Conductance (µS/cm,  10°C)  = 33
                          Density (g/cm³)  =   1.00041
                               Volume (L)  =   1.00313
                        Activity of water  =   0.997
                 Ionic strength (mol/kgw)  =   1.030e-04
                       Mass of water (kg)  =   9.980e-01
                 Total alkalinity (eq/kg)  =   1.537e-01
                         Temperature (°C)  =  10.00
                  Electrical balance (eq)  =  -7.339e-12
 Percent error, 100*(Cat-|An|)/(Cat+|An|)  =  -0.00
                               Iterations  =  30
                                  Total H  = 1.110971e+02
                                  Total O  = 5.539518e+01

----------------------------Distribution of species----------------------------

                                               Log       Log       Log    mole V
   Species          Molality    Activity  Molality  Activity     Gamma   cm³/mol

   H+              1.030e-04   1.018e-04    -3.987    -3.992    -0.005      0.00
   OH-             2.915e-11   2.882e-11   -10.535   -10.540    -0.005     -5.03
   H2O             5.551e+01   9.974e-01     1.744    -0.001     0.000     18.02
H(0)          7.570e-12
   H2              3.785e-12   3.785e-12   -11.422   -11.422     0.000     28.63
O(0)          0.000e+00
   O2              0.000e+00   0.000e+00   -74.636   -74.636     0.000     28.95
Sg            1.537e-01
   H2Sg            1.520e-01   1.520e-01    -0.818    -0.818     0.000     31.64
   (H2Sg)2         7.981e-04   7.981e-04    -3.098    -3.098     0.000     30.64
   HSg-            1.030e-04   1.018e-04    -3.987    -3.992    -0.005     19.59

------------------------------Saturation indices-------------------------------

  Phase               SI** log IAP   log K(283 K,   1 atm)

  H2(g)            -8.37    -11.42   -3.05  H2
  H2O(g)           -1.91     -0.00    1.91  H2O	 Pressure   0.0 atm, phi 0.989
  H2Sg(g)          -0.01     -7.98   -7.98  H2Sg	 Pressure   1.0 atm, phi 0.991
  O2(g)           -71.87    -74.64   -2.77  O2

**For a gas, SI = log10(fugacity). Fugacity = pressure * phi / 1 atm.
  For ideal gases, phi = 1.

Reaction step 4.

Using solution 1.	
Using gas phase 1.	
Using temperature 15.	

-----------------------------------Gas phase-----------------------------------

Total pressure:  1.00      atmospheres          (Peng-Robinson calculation)
    Gas volume:   2.11e+02 liters
  Molar volume:   2.34e+01 liters/mole
   P * Vm / RT:  0.99121  (Compressibility Factor Z) 

                                                        Moles in gas
                                            ----------------------------------
Component         log P           P    phi     Initial       Final       Delta

H2O(g)            -1.77   1.715e-02  0.989   1.110e-01   1.548e-01   4.375e-02
H2Sg(g)           -0.01   9.828e-01  0.991   8.847e+00   8.869e+00   2.239e-02

-----------------------------Solution composition------------------------------

	Elements           Molality       Moles

	Sg                1.313e-01   1.310e-01

----------------------------Description of solution----------------------------

                                       pH  =   3.986      Charge balance
                                       pe  =   0.173      Adjusted to redox equilibrium
      Specific Conductance (µS/cm,  15°C)  = 37
                          Density (g/cm³)  =   0.99948
                               Volume (L)  =   1.00246
                        Activity of water  =   0.998
                 Ionic strength (mol/kgw)  =   1.046e-04
                       Mass of water (kg)  =   9.972e-01
                 Total alkalinity (eq/kg)  =   1.313e-01
                         Temperature (°C)  =  15.00
                  Electrical balance (eq)  =  -8.195e-12
 Percent error, 100*(Cat-|An|)/(Cat+|An|)  =  -0.00
                               Iterations  =  30
                                  Total H  = 1.109648e+02
                                  Total O  = 5.535143e+01

----------------------------Distribution of species----------------------------

                                               Log       Log       Log    mole V
   Species          Molality    Activity  Molality  Activity     Gamma   cm³/mol

   H+              1.046e-04   1.034e-04    -3.981    -3.986    -0.005      0.00
   OH-             4.430e-11   4.378e-11   -10.354   -10.359    -0.005     -4.64
   H2O             5.551e+01   9.978e-01     1.744    -0.001     0.000     18.03
H(0)          7.567e-12
   H2              3.784e-12   3.784e-12   -11.422   -11.422     0.000     28.62
O(0)          0.000e+00
   O2              0.000e+00   0.000e+00   -72.877   -72.877     0.000     29.51
Sg            1.313e-01
   H2Sg            1.299e-01   1.299e-01    -0.886    -0.886     0.000     33.43
   (H2Sg)2         6.780e-04   6.780e-04    -3.169    -3.169     0.000     30.48
   HSg-            1.046e-04   1.034e-04    -3.981    -3.986    -0.005     20.00

------------------------------Saturation indices-------------------------------

  Phase               SI** log IAP   log K(288 K,   1 atm)

  H2(g)            -8.35    -11.42   -3.07  H2
  H2O(g)           -1.77     -0.00    1.77  H2O	 Pressure   0.0 atm, phi 0.989
  H2Sg(g)          -0.01     -7.97   -7.96  H2Sg	 Pressure   1.0 atm, phi 0.991
  O2(g)           -70.06    -72.88   -2.81  O2

**For a gas, SI = log10(fugacity). Fugacity = pressure * phi / 1 atm.
  For ideal gases, phi = 1.

Reaction step 5.

Using solution 1.	
Using gas phase 1.	
Using temperature 15.	

-----------------------------------Gas phase-----------------------------------

Total pressure:  1.00      atmospheres          (Peng-Robinson calculation)
    Gas volume:   2.17e+02 liters
  Molar volume:   2.39e+01 liters/mole
   P * Vm / RT:  0.99159  (Compressibility Factor Z) 

                                                        Moles in gas
                                            ----------------------------------
Component         log P           P    phi     Initial       Final       Delta

H2O(g)            -1.63   2.345e-02  0.989   1.548e-01   2.134e-01   5.861e-02
H2Sg(g)           -0.01   9.766e-01  0.992   8.869e+00   8.887e+00   1.817e-02

-----------------------------Solution composition------------------------------

	Elements           Molality       Moles

	Sg                1.132e-01   1.128e-01

----------------------------Description of solution----------------------------

                                       pH  =   3.980      Charge balance
                                       pe  =   0.167      Adjusted to redox equilibrium
      Specific Conductance (µS/cm,  20°C)  = 40
                          Density (g/cm³)  =   0.99836
                               Volume (L)  =   1.00187
                        Activity of water  =   0.998
                 Ionic strength (mol/kgw)  =   1.059e-04
                       Mass of water (kg)  =   9.962e-01
                 Total alkalinity (eq/kg)  =   1.132e-01
                         Temperature (°C)  =  20.00
                  Electrical balance (eq)  =  -8.981e-12
 Percent error, 100*(Cat-|An|)/(Cat+|An|)  =  -0.00
                               Iterations  =  31
                                  Total H  = 1.108112e+02
                                  Total O  = 5.529281e+01

----------------------------Distribution of species----------------------------

                                               Log       Log       Log    mole V
   Species          Molality    Activity  Molality  Activity     Gamma   cm³/mol

   H+              1.059e-04   1.046e-04    -3.975    -3.980    -0.005      0.00
   OH-             6.608e-11   6.530e-11   -10.180   -10.185    -0.005     -4.35
   H2O             5.551e+01   9.981e-01     1.744    -0.001     0.000     18.05
H(0)          7.549e-12
   H2              3.774e-12   3.774e-12   -11.423   -11.423     0.000     28.61
O(0)          0.000e+00
   O2              0.000e+00   0.000e+00   -71.177   -71.177     0.000     29.98
Sg            1.132e-01
   H2Sg            1.120e-01   1.120e-01    -0.951    -0.951     0.000     34.96
   (H2Sg)2         5.800e-04   5.800e-04    -3.237    -3.237     0.000     30.29
   HSg-            1.059e-04   1.046e-04    -3.975    -3.980    -0.005     20.33

------------------------------Saturation indices-------------------------------

  Phase               SI** log IAP   log K(293 K,   1 atm)

  H2(g)            -8.34    -11.42   -3.09  H2
  H2O(g)           -1.63     -0.00    1.63  H2O	 Pressure   0.0 atm, phi 0.989
  H2Sg(g)          -0.01     -7.96   -7.95  H2Sg	 Pressure   1.0 atm, phi 0.992
  O2(g)           -68.32    -71.18   -2.85  O2

**For a gas, SI = log10(fugacity). Fugacity = pressure * phi / 1 atm.
  For ideal gases, phi = 1.

Reaction step 6.

Using solution 1.	
Using gas phase 1.	
Using temperature 15.	

-----------------------------------Gas phase-----------------------------------

Total pressure:  1.00      atmospheres          (Peng-Robinson calculation)
    Gas volume:   2.23e+02 liters
  Molar volume:   2.43e+01 liters/mole
   P * Vm / RT:  0.99194  (Compressibility Factor Z) 

                                                        Moles in gas
                                            ----------------------------------
Component         log P           P    phi     Initial       Final       Delta

H2O(g)            -1.50   3.169e-02  0.990   2.134e-01   2.913e-01   7.791e-02
H2Sg(g)           -0.01   9.683e-01  0.992   8.887e+00   8.902e+00   1.493e-02

-----------------------------Solution composition------------------------------

	Elements           Molality       Moles

	Sg                9.839e-02   9.788e-02

----------------------------Description of solution----------------------------

                                       pH  =   3.977      Charge balance
                                       pe  =   0.159      Adjusted to redox equilibrium
      Specific Conductance (µS/cm,  25°C)  = 44
                          Density (g/cm³)  =   0.99706
                               Volume (L)  =   1.00123
                        Activity of water  =   0.998
                 Ionic strength (mol/kgw)  =   1.067e-04
                       Mass of water (kg)  =   9.948e-01
                 Total alkalinity (eq/kg)  =   9.839e-02
                         Temperature (°C)  =  25.00
                  Electrical balance (eq)  =  -9.698e-12
 Percent error, 100*(Cat-|An|)/(Cat+|An|)  =  -0.00
                               Iterations  =  30
                                  Total H  = 1.106256e+02
                                  Total O  = 5.521490e+01

----------------------------Distribution of species----------------------------

                                               Log       Log       Log    mole V
   Species          Molality    Activity  Molality  Activity     Gamma   cm³/mol

   H+              1.067e-04   1.055e-04    -3.972    -3.977    -0.005      0.00
   OH-             9.694e-11   9.578e-11   -10.014   -10.019    -0.005     -4.13
   H2O             5.551e+01   9.983e-01     1.744    -0.001     0.000     18.07
H(0)          7.561e-12
   H2              3.781e-12   3.781e-12   -11.422   -11.422     0.000     28.61
O(0)          0.000e+00
   O2              0.000e+00   0.000e+00   -69.537   -69.537     0.000     30.40
Sg            9.839e-02
   H2Sg            9.729e-02   9.729e-02    -1.012    -1.012     0.000     36.27
   (H2Sg)2         4.988e-04   4.988e-04    -3.302    -3.302     0.000     30.09
   HSg-            1.067e-04   1.055e-04    -3.972    -3.977    -0.005     20.58

------------------------------Saturation indices-------------------------------

  Phase               SI** log IAP   log K(298 K,   1 atm)

  H2(g)            -8.32    -11.42   -3.10  H2
  H2O(g)           -1.50     -0.00    1.50  H2O	 Pressure   0.0 atm, phi 0.990
  H2Sg(g)          -0.02     -7.95   -7.94  H2Sg	 Pressure   1.0 atm, phi 0.992
  O2(g)           -66.64    -69.54   -2.89  O2

**For a gas, SI = log10(fugacity). Fugacity = pressure * phi / 1 atm.
  For ideal gases, phi = 1.

Reaction step 7.

Using solution 1.	
Using gas phase 1.	
Using temperature 15.	

-----------------------------------Gas phase-----------------------------------

Total pressure:  1.00      atmospheres          (Peng-Robinson calculation)
    Gas volume:   2.30e+02 liters
  Molar volume:   2.47e+01 liters/mole
   P * Vm / RT:  0.99227  (Compressibility Factor Z) 

                                                        Moles in gas
                                            ----------------------------------
Component         log P           P    phi     Initial       Final       Delta

H2O(g)            -1.37   4.235e-02  0.990   2.913e-01   3.942e-01   1.029e-01
H2Sg(g)           -0.02   9.576e-01  0.992   8.902e+00   8.915e+00   1.244e-02

-----------------------------Solution composition------------------------------

	Elements           Molality       Moles

	Sg                8.605e-02   8.544e-02

----------------------------Description of solution----------------------------

                                       pH  =   3.975      Charge balance
                                       pe  =   0.150      Adjusted to redox equilibrium
      Specific Conductance (µS/cm,  30°C)  = 47
                          Density (g/cm³)  =   0.99557
                               Volume (L)  =   1.00042
                        Activity of water  =   0.999
                 Ionic strength (mol/kgw)  =   1.072e-04
                       Mass of water (kg)  =   9.929e-01
                 Total alkalinity (eq/kg)  =   8.605e-02
                         Temperature (°C)  =  30.00
                  Electrical balance (eq)  =  -1.035e-11
 Percent error, 100*(Cat-|An|)/(Cat+|An|)  =  -0.00
                               Iterations  =  30
                                  Total H  = 1.103948e+02
                                  Total O  = 5.511197e+01

----------------------------Distribution of species----------------------------

                                               Log       Log       Log    mole V
   Species          Molality    Activity  Molality  Activity     Gamma   cm³/mol

   H+              1.072e-04   1.060e-04    -3.970    -3.975    -0.005      0.00
   OH-             1.400e-10   1.383e-10    -9.854    -9.859    -0.005     -3.97
   H2O             5.551e+01   9.985e-01     1.744    -0.001     0.000     18.09
H(0)          7.587e-12
   H2              3.794e-12   3.794e-12   -11.421   -11.421     0.000     28.60
O(0)          0.000e+00
   O2              0.000e+00   0.000e+00   -67.952   -67.952     0.000     30.77
Sg            8.605e-02
   H2Sg            8.508e-02   8.509e-02    -1.070    -1.070     0.000     37.42
   (H2Sg)2         4.305e-04   4.305e-04    -3.366    -3.366     0.000     29.87
   HSg-            1.072e-04   1.059e-04    -3.970    -3.975    -0.005     20.78

------------------------------Saturation indices-------------------------------

  Phase               SI** log IAP   log K(303 K,   1 atm)

  H2(g)            -8.31    -11.42   -3.11  H2
  H2O(g)           -1.38     -0.00    1.38  H2O	 Pressure   0.0 atm, phi 0.990
  H2Sg(g)          -0.02     -7.95   -7.93  H2Sg	 Pressure   1.0 atm, phi 0.992
  O2(g)           -65.03    -67.95   -2.93  O2

**For a gas, SI = log10(fugacity). Fugacity = pressure * phi / 1 atm.
  For ideal gases, phi = 1.

Reaction step 8.

Using solution 1.	
Using gas phase 1.	
Using temperature 15.	

-----------------------------------Gas phase-----------------------------------

Total pressure:  1.00      atmospheres          (Peng-Robinson calculation)
    Gas volume:   2.37e+02 liters
  Molar volume:   2.51e+01 liters/mole
   P * Vm / RT:  0.99257  (Compressibility Factor Z) 

                                                        Moles in gas
                                            ----------------------------------
Component         log P           P    phi     Initial       Final       Delta

H2O(g)            -1.25   5.602e-02  0.990   3.942e-01   5.296e-01   1.354e-01
H2Sg(g)           -0.03   9.440e-01  0.993   8.915e+00   8.925e+00   1.050e-02

-----------------------------Solution composition------------------------------

	Elements           Molality       Moles

	Sg                7.566e-02   7.494e-02

----------------------------Description of solution----------------------------

                                       pH  =   3.975      Charge balance
                                       pe  =   0.115      Adjusted to redox equilibrium
      Specific Conductance (µS/cm,  35°C)  = 50
                          Density (g/cm³)  =   0.99389
                               Volume (L)  =   0.99927
                        Activity of water  =   0.999
                 Ionic strength (mol/kgw)  =   1.073e-04
                       Mass of water (kg)  =   9.905e-01
                 Total alkalinity (eq/kg)  =   7.566e-02
                         Temperature (°C)  =  35.00
                  Electrical balance (eq)  =  -1.138e-11
 Percent error, 100*(Cat-|An|)/(Cat+|An|)  =  -0.00
                               Iterations  =  32
                                  Total H  = 1.101030e+02
                                  Total O  = 5.497658e+01

----------------------------Distribution of species----------------------------

                                               Log       Log       Log    mole V
   Species          Molality    Activity  Molality  Activity     Gamma   cm³/mol

   H+              1.073e-04   1.060e-04    -3.969    -3.975    -0.005      0.00
   OH-             1.994e-10   1.970e-10    -9.700    -9.706    -0.005     -3.87
   H2O             5.551e+01   9.987e-01     1.744    -0.001     0.000     18.12
H(0)          8.505e-12
   H2              4.252e-12   4.252e-12   -11.371   -11.371     0.000     28.60
O(0)          0.000e+00
   O2              0.000e+00   0.000e+00   -66.516   -66.516     0.000     31.10
Sg            7.566e-02
   H2Sg            7.481e-02   7.481e-02    -1.126    -1.126     0.000     38.44
   (H2Sg)2         3.722e-04   3.722e-04    -3.429    -3.429     0.000     29.63
   HSg-            1.073e-04   1.060e-04    -3.969    -3.975    -0.005     20.92

------------------------------Saturation indices-------------------------------

  Phase               SI** log IAP   log K(308 K,   1 atm)

  H2(g)            -8.25    -11.37   -3.12  H2
  H2O(g)           -1.26     -0.00    1.26  H2O	 Pressure   0.1 atm, phi 0.990
  H2Sg(g)          -0.03     -7.95   -7.92  H2Sg	 Pressure   0.9 atm, phi 0.993
  O2(g)           -63.56    -66.52   -2.96  O2

**For a gas, SI = log10(fugacity). Fugacity = pressure * phi / 1 atm.
  For ideal gases, phi = 1.

Reaction step 9.

Using solution 1.	
Using gas phase 1.	
Using temperature 15.	

-----------------------------------Gas phase-----------------------------------

Total pressure:  1.00      atmospheres          (Peng-Robinson calculation)
    Gas volume:   2.46e+02 liters
  Molar volume:   2.55e+01 liters/mole
   P * Vm / RT:  0.99284  (Compressibility Factor Z) 

                                                        Moles in gas
                                            ----------------------------------
Component         log P           P    phi     Initial       Final       Delta

H2O(g)            -1.13   7.336e-02  0.991   5.296e-01   7.073e-01   1.777e-01
H2Sg(g)           -0.03   9.266e-01  0.993   8.925e+00   8.934e+00   9.000e-03

-----------------------------Solution composition------------------------------

	Elements           Molality       Moles

	Sg                6.679e-02   6.594e-02

----------------------------Description of solution----------------------------

                                       pH  =   3.976      Charge balance
                                       pe  =   0.103      Adjusted to redox equilibrium
      Specific Conductance (µS/cm,  40°C)  = 52
                          Density (g/cm³)  =   0.99203
                               Volume (L)  =   0.99758
                        Activity of water  =   0.999
                 Ionic strength (mol/kgw)  =   1.069e-04
                       Mass of water (kg)  =   9.873e-01
                 Total alkalinity (eq/kg)  =   6.679e-02
                         Temperature (°C)  =  40.00
                  Electrical balance (eq)  =  -1.230e-11
 Percent error, 100*(Cat-|An|)/(Cat+|An|)  =  -0.00
                               Iterations  =  29
                                  Total H  = 1.097296e+02
                                  Total O  = 5.479888e+01

----------------------------Distribution of species----------------------------

                                               Log       Log       Log    mole V
   Species          Molality    Activity  Molality  Activity     Gamma   cm³/mol

   H+              1.069e-04   1.056e-04    -3.971    -3.976    -0.005      0.00
   OH-             2.805e-10   2.770e-10    -9.552    -9.557    -0.005     -3.81
   H2O             5.551e+01   9.989e-01     1.744    -0.000     0.000     18.16
H(0)          8.539e-12
   H2              4.269e-12   4.269e-12   -11.370   -11.370     0.000     28.59
O(0)          0.000e+00
   O2              0.000e+00   0.000e+00   -65.033   -65.033     0.000     31.40
Sg            6.679e-02
   H2Sg            6.604e-02   6.604e-02    -1.180    -1.180     0.000     39.35
   (H2Sg)2         3.216e-04   3.216e-04    -3.493    -3.493     0.000     29.37
   HSg-            1.069e-04   1.056e-04    -3.971    -3.977    -0.005     21.02

------------------------------Saturation indices-------------------------------

  Phase               SI** log IAP   log K(313 K,   1 atm)

  H2(g)            -8.24    -11.37   -3.13  H2
  H2O(g)           -1.14     -0.00    1.14  H2O	 Pressure   0.1 atm, phi 0.991
  H2Sg(g)          -0.04     -7.95   -7.92  H2Sg	 Pressure   0.9 atm, phi 0.993
  O2(g)           -62.05    -65.03   -2.98  O2

**For a gas, SI = log10(fugacity). Fugacity = pressure * phi / 1 atm.
  For ideal gases, phi = 1.

Reaction step 10.

Using solution 1.	
Using gas phase 1.	
Using temperature 15.	

-----------------------------------Gas phase-----------------------------------

Total pressure:  1.00      atmospheres          (Peng-Robinson calculation)
    Gas volume:   2.69e+02 liters
  Molar volume:   2.63e+01 liters/mole
   P * Vm / RT:  0.99330  (Compressibility Factor Z) 

                                                        Moles in gas
                                            ----------------------------------
Component         log P           P    phi     Initial       Final       Delta

H2O(g)            -0.91   1.224e-01  0.991   7.073e-01   1.248e+00   5.405e-01
H2Sg(g)           -0.06   8.776e-01  0.994   8.934e+00   8.949e+00   1.479e-02

-----------------------------Solution composition------------------------------

	Elements           Molality       Moles

	Sg                5.233e-02   5.115e-02

----------------------------Description of solution----------------------------

                                       pH  =   3.987      Charge balance
                                       pe  =   0.071      Adjusted to redox equilibrium
      Specific Conductance (µS/cm,  50°C)  = 56
                          Density (g/cm³)  =   0.98782
                               Volume (L)  =   0.99144
                        Activity of water  =   0.999
                 Ionic strength (mol/kgw)  =   1.044e-04
                       Mass of water (kg)  =   9.775e-01
                 Total alkalinity (eq/kg)  =   5.233e-02
                         Temperature (°C)  =  50.00
                  Electrical balance (eq)  =  -1.284e-11
 Percent error, 100*(Cat-|An|)/(Cat+|An|)  =  -0.00
                               Iterations  =  31
                                  Total H  = 1.086191e+02
                                  Total O  = 5.425842e+01

----------------------------Distribution of species----------------------------

                                               Log       Log       Log    mole V
   Species          Molality    Activity  Molality  Activity     Gamma   cm³/mol

   H+              1.044e-04   1.031e-04    -3.981    -3.987    -0.005      0.00
   OH-             5.370e-10   5.303e-10    -9.270    -9.275    -0.005     -3.82
   H2O             5.551e+01   9.991e-01     1.744    -0.000     0.000     18.23
H(0)          8.620e-12
   H2              4.310e-12   4.310e-12   -11.366   -11.366     0.000     28.59
O(0)          0.000e+00
   O2              0.000e+00   0.000e+00   -62.206   -62.206     0.000     31.92
Sg            5.233e-02
   H2Sg            5.175e-02   5.175e-02    -1.286    -1.286     0.000     40.92
   (H2Sg)2         2.368e-04   2.368e-04    -3.626    -3.626     0.000     28.78
   HSg-            1.044e-04   1.031e-04    -3.981    -3.987    -0.005     21.11

------------------------------Saturation indices-------------------------------

  Phase               SI** log IAP   log K(323 K,   1 atm)

  H2(g)            -8.23    -11.37   -3.14  H2
  H2O(g)           -0.92     -0.00    0.92  H2O	 Pressure   0.1 atm, phi 0.991
  H2Sg(g)          -0.06     -7.97   -7.91  H2Sg	 Pressure   0.9 atm, phi 0.994
  O2(g)           -59.18    -62.21   -3.03  O2

**For a gas, SI = log10(fugacity). Fugacity = pressure * phi / 1 atm.
  For ideal gases, phi = 1.

Reaction step 11.

Using solution 1.	
Using gas phase 1.	
Using temperature 15.	

-----------------------------------Gas phase-----------------------------------

Total pressure:  1.00      atmospheres          (Peng-Robinson calculation)
    Gas volume:   3.03e+02 liters
  Molar volume:   2.72e+01 liters/mole
   P * Vm / RT:  0.99362  (Compressibility Factor Z) 

                                                        Moles in gas
                                            ----------------------------------
Component         log P           P    phi     Initial       Final       Delta

H2O(g)            -0.71   1.972e-01  0.991   1.248e+00   2.202e+00   9.538e-01
H2Sg(g)           -0.10   8.028e-01  0.994   8.949e+00   8.961e+00   1.207e-02

-----------------------------Solution composition------------------------------

	Elements           Molality       Moles

	Sg                4.069e-02   3.908e-02

----------------------------Description of solution----------------------------

                                       pH  =   4.008      Charge balance
                                       pe  =   0.028      Adjusted to redox equilibrium
      Specific Conductance (µS/cm,  60°C)  = 58
                          Density (g/cm³)  =   0.98298
                               Volume (L)  =   0.97839
                        Activity of water  =   0.999
                 Ionic strength (mol/kgw)  =   9.933e-05
                       Mass of water (kg)  =   9.603e-01
                 Total alkalinity (eq/kg)  =   4.069e-02
                         Temperature (°C)  =  60.00
                  Electrical balance (eq)  =  -1.323e-11
 Percent error, 100*(Cat-|An|)/(Cat+|An|)  =  -0.00
                               Iterations  =  31
                                  Total H  = 1.066874e+02
                                  Total O  = 5.330460e+01

----------------------------Distribution of species----------------------------

                                               Log       Log       Log    mole V
   Species          Molality    Activity  Molality  Activity     Gamma   cm³/mol

   H+              9.933e-05   9.813e-05    -4.003    -4.008    -0.005      0.00
   OH-             9.954e-10   9.832e-10    -9.002    -9.007    -0.005     -3.98
   H2O             5.551e+01   9.993e-01     1.744    -0.000     0.000     18.32
H(0)          8.774e-12
   H2              4.387e-12   4.387e-12   -11.358   -11.358     0.000     28.58
O(0)          0.000e+00
   O2              0.000e+00   0.000e+00   -59.556   -59.556     0.000     32.38
Sg            4.069e-02
   H2Sg            4.026e-02   4.026e-02    -1.395    -1.395     0.000     42.24
   (H2Sg)2         1.668e-04   1.668e-04    -3.778    -3.778     0.000     28.10
   HSg-            9.933e-05   9.811e-05    -4.003    -4.008    -0.005     21.07

------------------------------Saturation indices-------------------------------

  Phase               SI** log IAP   log K(333 K,   1 atm)

  H2(g)            -8.22    -11.36   -3.14  H2
  H2O(g)           -0.71     -0.00    0.71  H2O	 Pressure   0.2 atm, phi 0.991
  H2Sg(g)          -0.10     -8.02   -7.92  H2Sg	 Pressure   0.8 atm, phi 0.994
  O2(g)           -56.49    -59.56   -3.06  O2

**For a gas, SI = log10(fugacity). Fugacity = pressure * phi / 1 atm.
  For ideal gases, phi = 1.

Reaction step 12.

Using solution 1.	
Using gas phase 1.	
Using temperature 15.	

-----------------------------------Gas phase-----------------------------------

Total pressure:  1.00      atmospheres          (Peng-Robinson calculation)
    Gas volume:   3.63e+02 liters
  Molar volume:   2.80e+01 liters/mole
   P * Vm / RT:  0.99374  (Compressibility Factor Z) 

                                                        Moles in gas
                                            ----------------------------------
Component         log P           P    phi     Initial       Final       Delta

H2O(g)            -0.51   3.081e-01  0.991   2.202e+00   3.995e+00   1.793e+00
H2Sg(g)           -0.16   6.919e-01  0.995   8.961e+00   8.972e+00   1.072e-02

-----------------------------Solution composition------------------------------

	Elements           Molality       Moles

	Sg                3.056e-02   2.836e-02

----------------------------Description of solution----------------------------

                                       pH  =   4.046      Charge balance
                                       pe  =  -0.034      Adjusted to redox equilibrium
      Specific Conductance (µS/cm,  70°C)  = 58
                          Density (g/cm³)  =   0.97758
                               Volume (L)  =   0.95036
                        Activity of water  =   0.999
                 Ionic strength (mol/kgw)  =   9.100e-05
                       Mass of water (kg)  =   9.280e-01
                 Total alkalinity (eq/kg)  =   3.056e-02
                         Temperature (°C)  =  70.00
                  Electrical balance (eq)  =  -1.355e-11
 Percent error, 100*(Cat-|An|)/(Cat+|An|)  =  -0.00
                               Iterations  =  31
                                  Total H  = 1.030795e+02
                                  Total O  = 5.151139e+01

----------------------------Distribution of species----------------------------

                                               Log       Log       Log    mole V
   Species          Molality    Activity  Molality  Activity     Gamma   cm³/mol

   H+              9.100e-05   8.992e-05    -4.041    -4.046    -0.005      0.00
   OH-             1.818e-09   1.796e-09    -8.740    -8.746    -0.005     -4.28
   H2O             5.551e+01   9.995e-01     1.744    -0.000     0.000     18.43
H(0)          9.089e-12
   H2              4.545e-12   4.545e-12   -11.343   -11.342     0.000     28.58
O(0)          0.000e+00
   O2              0.000e+00   0.000e+00   -57.077   -57.077     0.000     32.79
Sg            3.056e-02
   H2Sg            3.025e-02   3.025e-02    -1.519    -1.519     0.000     43.37
   (H2Sg)2         1.067e-04   1.067e-04    -3.972    -3.972     0.000     27.32
   HSg-            9.100e-05   8.990e-05    -4.041    -4.046    -0.005     20.91

------------------------------Saturation indices-------------------------------

  Phase               SI** log IAP   log K(343 K,   1 atm)

  H2(g)            -8.21    -11.34   -3.14  H2
  H2O(g)           -0.52     -0.00    0.51  H2O	 Pressure   0.3 atm, phi 0.991
  H2Sg(g)          -0.16     -8.09   -7.93  H2Sg	 Pressure   0.7 atm, phi 0.995
  O2(g)           -53.99    -57.08   -3.09  O2

**For a gas, SI = log10(fugacity). Fugacity = pressure * phi / 1 atm.
  For ideal gases, phi = 1.

Reaction step 13.

Using solution 1.	
Using gas phase 1.	
Using temperature 15.	

-----------------------------------Gas phase-----------------------------------

Total pressure:  1.00      atmospheres          (Peng-Robinson calculation)
    Gas volume:   4.86e+02 liters
  Molar volume:   2.88e+01 liters/mole
   P * Vm / RT:  0.99354  (Compressibility Factor Z) 

                                                        Moles in gas
                                            ----------------------------------
Component         log P           P    phi     Initial       Final       Delta

H2O(g)            -0.33   4.676e-01  0.991   3.995e+00   7.890e+00   3.895e+00
H2Sg(g)           -0.27   5.324e-01  0.996   8.972e+00   8.982e+00   1.039e-02

-----------------------------Solution composition------------------------------

	Elements           Molality       Moles

	Sg                2.094e-02   1.796e-02

----------------------------Description of solution----------------------------

                                       pH  =   4.112      Charge balance
                                       pe  =  -0.133      Adjusted to redox equilibrium
      Specific Conductance (µS/cm,  80°C)  = 53
                          Density (g/cm³)  =   0.97165
                               Volume (L)  =   0.88355
                        Activity of water  =   1.000
                 Ionic strength (mol/kgw)  =   7.815e-05
                       Mass of water (kg)  =   8.578e-01
                 Total alkalinity (eq/kg)  =   2.094e-02
                         Temperature (°C)  =  80.00
                  Electrical balance (eq)  =  -1.367e-11
 Percent error, 100*(Cat-|An|)/(Cat+|An|)  =  -0.00
                               Iterations  =  34
                                  Total H  = 9.526776e+01
                                  Total O  = 4.761592e+01

----------------------------Distribution of species----------------------------

                                               Log       Log       Log    mole V
   Species          Molality    Activity  Molality  Activity     Gamma   cm³/mol

   H+              7.815e-05   7.727e-05    -4.107    -4.112    -0.005      0.00
   OH-             3.374e-09   3.335e-09    -8.472    -8.477    -0.005     -4.70
   H2O             5.551e+01   9.996e-01     1.744    -0.000     0.000     18.54
H(0)          9.843e-12
   H2              4.921e-12   4.921e-12   -11.308   -11.308     0.000     28.57
O(0)          0.000e+00
   O2              0.000e+00   0.000e+00   -54.779   -54.779     0.000     33.17
Sg            2.094e-02
   H2Sg            2.075e-02   2.075e-02    -1.683    -1.683     0.000     44.39
   HSg-            7.814e-05   7.725e-05    -4.107    -4.112    -0.005     20.64
   (H2Sg)2         5.545e-05   5.545e-05    -4.256    -4.256     0.000     26.43

------------------------------Saturation indices-------------------------------

  Phase               SI** log IAP   log K(353 K,   1 atm)

  H2(g)            -8.18    -11.31   -3.13  H2
  H2O(g)           -0.33     -0.00    0.33  H2O	 Pressure   0.5 atm, phi 0.991
  H2Sg(g)          -0.28     -8.22   -7.95  H2Sg	 Pressure   0.5 atm, phi 0.996
  O2(g)           -51.67    -54.78   -3.11  O2

**For a gas, SI = log10(fugacity). Fugacity = pressure * phi / 1 atm.
  For ideal gases, phi = 1.

Reaction step 14.

Using solution 1.	
Using gas phase 1.	
Using temperature 15.	

-----------------------------------Gas phase-----------------------------------

Total pressure:  1.00      atmospheres          (Peng-Robinson calculation)
    Gas volume:   8.62e+02 liters
  Molar volume:   2.96e+01 liters/mole
   P * Vm / RT:  0.99284  (Compressibility Factor Z) 

                                                        Moles in gas
                                            ----------------------------------
Component         log P           P    phi     Initial       Final       Delta

H2O(g)            -0.16   6.913e-01  0.991   7.890e+00   2.014e+01   1.225e+01
H2Sg(g)           -0.51   3.087e-01  0.997   8.982e+00   8.993e+00   1.093e-02

-----------------------------Solution composition------------------------------

	Elements           Molality       Moles

	Sg                1.104e-02   7.034e-03

----------------------------Description of solution----------------------------

                                       pH  =   4.242      Charge balance
                                       pe  =  -0.343      Adjusted to redox equilibrium
      Specific Conductance (µS/cm,  90°C)  = 41
                          Density (g/cm³)  =   0.96523
                               Volume (L)  =   0.66036
                        Activity of water  =   1.000
                 Ionic strength (mol/kgw)  =   5.781e-05
                       Mass of water (kg)  =   6.371e-01
                 Total alkalinity (eq/kg)  =   1.104e-02
                         Temperature (°C)  =  90.00
                  Electrical balance (eq)  =  -1.369e-11
 Percent error, 100*(Cat-|An|)/(Cat+|An|)  =  -0.00
                               Iterations  =  41
                                  Total H  = 7.074517e+01
                                  Total O  = 3.536555e+01

----------------------------Distribution of species----------------------------

                                               Log       Log       Log    mole V
   Species          Molality    Activity  Molality  Activity     Gamma   cm³/mol

   H+              5.781e-05   5.724e-05    -4.238    -4.242    -0.004      0.00
   OH-             6.947e-09   6.877e-09    -8.158    -8.163    -0.004     -5.25
   H2O             5.551e+01   9.998e-01     1.744    -0.000     0.000     18.66
H(0)          1.325e-11
   H2              6.623e-12   6.623e-12   -11.179   -11.179     0.000     28.57
O(0)          0.000e+00
   O2              0.000e+00   0.000e+00   -52.800   -52.800     0.000     33.54
Sg            1.104e-02
   H2Sg            1.095e-02   1.095e-02    -1.961    -1.961     0.000     45.31
   HSg-            5.781e-05   5.722e-05    -4.238    -4.242    -0.004     20.26
   (H2Sg)2         1.666e-05   1.666e-05    -4.778    -4.778     0.000     25.40

------------------------------Saturation indices-------------------------------

  Phase               SI** log IAP   log K(363 K,   1 atm)

  H2(g)            -8.06    -11.18   -3.12  H2
  H2O(g)           -0.16     -0.00    0.16  H2O	 Pressure   0.7 atm, phi 0.991
  H2Sg(g)          -0.51     -8.48   -7.97  H2Sg	 Pressure   0.3 atm, phi 0.997
  O2(g)           -49.69    -52.80   -3.11  O2

**For a gas, SI = log10(fugacity). Fugacity = pressure * phi / 1 atm.
  For ideal gases, phi = 1.

Reaction step 15.

Using solution 1.	
Using gas phase 1.	
Using temperature 15.	

-----------------------------------Gas phase-----------------------------------

Total pressure:  1.00      atmospheres          (Peng-Robinson calculation)
    Gas volume:   1.36e+03 liters
  Molar volume:   2.99e+01 liters/mole
   P * Vm / RT:  0.99236  (Compressibility Factor Z) 

                                                        Moles in gas
                                            ----------------------------------
Component         log P           P    phi     Initial       Final       Delta

H2O(g)            -0.10   8.027e-01  0.991   2.014e+01   3.661e+01   1.647e+01
H2Sg(g)           -0.70   1.973e-01  0.998   8.993e+00   8.998e+00   4.707e-03

-----------------------------Solution composition------------------------------

	Elements           Molality       Moles

	Sg                6.833e-03   2.326e-03

----------------------------Description of solution----------------------------

                                       pH  =   4.345      Charge balance
                                       pe  =  -0.588      Adjusted to redox equilibrium
      Specific Conductance (µS/cm,  94°C)  = 33
                          Density (g/cm³)  =   0.96253
                               Volume (L)  =   0.35382
                        Activity of water  =   1.000
                 Ionic strength (mol/kgw)  =   4.559e-05
                       Mass of water (kg)  =   3.405e-01
                 Total alkalinity (eq/kg)  =   6.833e-03
                         Temperature (°C)  =  94.00
                  Electrical balance (eq)  =  -1.370e-11
 Percent error, 100*(Cat-|An|)/(Cat+|An|)  =  -0.00
                               Iterations  =  78
                                  Total H  = 3.780227e+01
                                  Total O  = 1.889881e+01

----------------------------Distribution of species----------------------------

                                               Log       Log       Log    mole V
   Species          Molality    Activity  Molality  Activity     Gamma   cm³/mol

   H+              4.559e-05   4.518e-05    -4.341    -4.345    -0.004      0.00
   OH-             1.030e-08   1.021e-08    -7.987    -7.991    -0.004     -5.51
   H2O             5.551e+01   9.999e-01     1.744    -0.000     0.000     18.72
H(0)          2.482e-11
   H2              1.241e-11   1.241e-11   -10.906   -10.906     0.000     28.57
O(0)          0.000e+00
   O2              0.000e+00   0.000e+00   -52.485   -52.485     0.000     33.68
Sg            6.833e-03
   H2Sg            6.774e-03   6.774e-03    -2.169    -2.169     0.000     45.66
   HSg-            4.558e-05   4.516e-05    -4.341    -4.345    -0.004     20.08
   (H2Sg)2         6.535e-06   6.535e-06    -5.185    -5.185     0.000     24.95

------------------------------Saturation indices-------------------------------

  Phase               SI** log IAP   log K(367 K,   1 atm)

  H2(g)            -7.80    -10.91   -3.11  H2
  H2O(g)           -0.10     -0.00    0.10  H2O	 Pressure   0.8 atm, phi 0.991
  H2Sg(g)          -0.71     -8.69   -7.98  H2Sg	 Pressure   0.2 atm, phi 0.998
  O2(g)           -49.37    -52.48   -3.11  O2

**For a gas, SI = log10(fugacity). Fugacity = pressure * phi / 1 atm.
  For ideal gases, phi = 1.

------------------
End of simulation.
------------------

------------------------------------
Reading input data for simulation 4.
------------------------------------

	USE solution 1
	 USE reaction_temperature 7	
	GAS_PHASE 1
	 fixed_pressure
	 volume 0.01
	H2Sg(g) 0
	H2O(g) 0
	 pressure   29.6 	
	USER_GRAPH 1
	 -headings x	        
	END	
-----------------------------------------
Beginning of batch-reaction calculations.
-----------------------------------------

Reaction step 1.

Using solution 1.	
Using gas phase 1.	
Using temperature 7.	

-----------------------------------Gas phase-----------------------------------

Total pressure: 29.60      atmospheres          (Peng-Robinson calculation)
    Gas volume:   3.94e+00 liters
  Molar volume:   6.02e-01 liters/mole
   P * Vm / RT:  0.71666  (Compressibility Factor Z) 

                                                        Moles in gas
                                            ----------------------------------
Component         log P           P    phi     Initial       Final       Delta

H2O(g)            -1.24   5.714e-02  0.722   0.000e+00   1.264e-02   1.264e-02
H2Sg(g)            1.47   2.954e+01  0.780   0.000e+00   6.535e+00   6.535e+00

-----------------------------Solution composition------------------------------

	Elements           Molality       Moles

	Sg                2.466e+00   2.465e+00

----------------------------Description of solution----------------------------

                                       pH  =   3.287      Charge balance
                                       pe  =  15.581      Adjusted to redox equilibrium
      Specific Conductance (µS/cm,  30°C)  = 232
                          Density (g/cm³)  =   1.00459
                               Volume (L)  =   1.08378
                        Activity of water  =   0.962
                 Ionic strength (mol/kgw)  =   5.291e-04
                       Mass of water (kg)  =   9.998e-01
                 Total alkalinity (eq/kg)  =   2.466e+00
                         Temperature (°C)  =  30.00
                           Pressure (atm)  = 29.60
                  Electrical balance (eq)  =  -5.569e-12
 Percent error, 100*(Cat-|An|)/(Cat+|An|)  =  -0.00
                               Iterations  =  69
                                  Total H  = 1.159175e+02
                                  Total O  = 5.549358e+01

----------------------------Distribution of species----------------------------

                                               Log       Log       Log    mole V
   Species          Molality    Activity  Molality  Activity     Gamma   cm³/mol

   H+              5.291e-04   5.158e-04    -3.276    -3.287    -0.011      0.00
   OH-             2.884e-11   2.809e-11   -10.540   -10.552    -0.012     -3.89
   H2O             5.551e+01   9.622e-01     1.744    -0.017     0.000     18.07
H(0)          0.000e+00
   H2              0.000e+00   0.000e+00   -40.923   -40.923     0.000     28.59
O(0)          1.971e-09
   O2              9.855e-10   9.857e-10    -9.006    -9.006     0.000     30.72
Sg            2.466e+00
   H2Sg            1.977e+00   1.977e+00     0.296     0.296     0.000     37.08
   (H2Sg)2         2.442e-01   2.442e-01    -0.612    -0.612     0.000     31.19
   HSg-            5.291e-04   5.153e-04    -3.276    -3.288    -0.012     20.80

------------------------------Saturation indices-------------------------------

  Phase               SI** log IAP   log K(303 K,  30 atm)

  H2(g)           -37.80    -40.92   -3.13  H2
  H2O(g)           -1.38     -0.02    1.37  H2O	 Pressure   0.1 atm, phi 0.722
  H2Sg(g)           1.36     -6.58   -7.94  H2Sg	 Pressure  29.5 atm, phi 0.780
  O2(g)            -6.06     -9.01   -2.94  O2

**For a gas, SI = log10(fugacity). Fugacity = pressure * phi / 1 atm.
  For ideal gases, phi = 1.

Reaction step 2.

Using solution 1.	
Using gas phase 1.	
Using temperature 7.	

-----------------------------------Gas phase-----------------------------------

Total pressure: 29.60      atmospheres          (Peng-Robinson calculation)
    Gas volume:   5.60e+00 liters
  Molar volume:   7.38e-01 liters/mole
   P * Vm / RT:  0.79955  (Compressibility Factor Z) 

                                                        Moles in gas
                                            ----------------------------------
Component         log P           P    phi     Initial       Final       Delta

H2O(g)            -0.60   2.486e-01  0.784   1.264e-02   6.371e-02   5.107e-02
H2Sg(g)            1.47   2.935e+01  0.831   6.535e+00   7.523e+00   9.878e-01

-----------------------------Solution composition------------------------------

	Elements           Molality       Moles

	Sg                1.479e+00   1.477e+00

----------------------------Description of solution----------------------------

                                       pH  =   3.270      Charge balance
                                       pe  =  13.547      Adjusted to redox equilibrium
      Specific Conductance (µS/cm,  60°C)  = 324
                          Density (g/cm³)  =   0.98494
                               Volume (L)  =   1.06827
                        Activity of water  =   0.977
                 Ionic strength (mol/kgw)  =   5.516e-04
                       Mass of water (kg)  =   9.989e-01
                 Total alkalinity (eq/kg)  =   1.479e+00
                         Temperature (°C)  =  60.00
                           Pressure (atm)  = 29.60
                  Electrical balance (eq)  =  -5.570e-12
 Percent error, 100*(Cat-|An|)/(Cat+|An|)  =  -0.00
                               Iterations  =  44
                                  Total H  = 1.138398e+02
                                  Total O  = 5.544251e+01

----------------------------Distribution of species----------------------------

                                               Log       Log       Log    mole V
   Species          Molality    Activity  Molality  Activity     Gamma   cm³/mol

   H+              5.516e-04   5.366e-04    -3.258    -3.270    -0.012      0.00
   OH-             1.852e-10   1.800e-10    -9.732    -9.745    -0.012     -4.03
   H2O             5.551e+01   9.774e-01     1.744    -0.010     0.000     18.30
H(0)          2.330e-37
   H2              1.165e-37   1.165e-37   -36.934   -36.934     0.000     28.57
O(0)          7.131e-09
   O2              3.566e-09   3.566e-09    -8.448    -8.448     0.000     32.31
Sg            1.479e+00
   H2Sg            1.177e+00   1.177e+00     0.071     0.071     0.000     41.84
   (H2Sg)2         1.509e-01   1.509e-01    -0.821    -0.821     0.000     29.45
   HSg-            5.516e-04   5.360e-04    -3.258    -3.271    -0.012     21.09

------------------------------Saturation indices-------------------------------

  Phase               SI** log IAP   log K(333 K,  30 atm)

  H2(g)           -33.78    -36.93   -3.15  H2
  H2O(g)           -0.71     -0.01    0.70  H2O	 Pressure   0.2 atm, phi 0.784
  H2Sg(g)           1.39     -6.54   -7.93  H2Sg	 Pressure  29.4 atm, phi 0.831
  O2(g)            -5.37     -8.45   -3.08  O2

**For a gas, SI = log10(fugacity). Fugacity = pressure * phi / 1 atm.
  For ideal gases, phi = 1.

Reaction step 3.

Using solution 1.	
Using gas phase 1.	
Using temperature 7.	

-----------------------------------Gas phase-----------------------------------

Total pressure: 29.60      atmospheres          (Peng-Robinson calculation)
    Gas volume:   6.98e+00 liters
  Molar volume:   8.55e-01 liters/mole
   P * Vm / RT:  0.84906  (Compressibility Factor Z) 

                                                        Moles in gas
                                            ----------------------------------
Component         log P           P    phi     Initial       Final       Delta

H2O(g)            -0.08   8.314e-01  0.825   6.371e-02   2.295e-01   1.658e-01
H2Sg(g)            1.46   2.877e+01  0.867   7.523e+00   7.941e+00   4.184e-01

-----------------------------Solution composition------------------------------

	Elements           Molality       Moles

	Sg                1.063e+00   1.059e+00

----------------------------Description of solution----------------------------

                                       pH  =   3.292      Charge balance
                                       pe  =  11.758      Adjusted to redox equilibrium
      Specific Conductance (µS/cm,  90°C)  = 377
                          Density (g/cm³)  =   0.96549
                               Volume (L)  =   1.07105
                        Activity of water  =   0.984
                 Ionic strength (mol/kgw)  =   5.254e-04
                       Mass of water (kg)  =   9.959e-01
                 Total alkalinity (eq/kg)  =   1.063e+00
                         Temperature (°C)  =  90.00
                           Pressure (atm)  = 29.60
                  Electrical balance (eq)  =  -5.605e-12
 Percent error, 100*(Cat-|An|)/(Cat+|An|)  =  -0.00
                               Iterations  =  39
                                  Total H  = 1.126713e+02
                                  Total O  = 5.527671e+01

----------------------------Distribution of species----------------------------

                                               Log       Log       Log    mole V
   Species          Molality    Activity  Molality  Activity     Gamma   cm³/mol

   H+              5.254e-04   5.105e-04    -3.280    -3.292    -0.013      0.00
   OH-             8.000e-10   7.764e-10    -9.097    -9.110    -0.013     -5.35
   H2O             5.551e+01   9.837e-01     1.744    -0.007     0.000     18.64
H(0)          6.423e-34
   H2              3.212e-34   3.212e-34   -33.493   -33.493     0.000     28.56
O(0)          1.240e-08
   O2              6.199e-09   6.200e-09    -8.208    -8.208     0.000     33.45
Sg            1.063e+00
   H2Sg            8.497e-01   8.498e-01    -0.071    -0.071     0.000     44.87
   (H2Sg)2         1.066e-01   1.066e-01    -0.972    -0.972     0.000     26.79
   HSg-            5.254e-04   5.099e-04    -3.280    -3.293    -0.013     20.30

------------------------------Saturation indices-------------------------------

  Phase               SI** log IAP   log K(363 K,  30 atm)

  H2(g)           -30.36    -33.49   -3.13  H2
  H2O(g)           -0.16     -0.01    0.16  H2O	 Pressure   0.8 atm, phi 0.825
  H2Sg(g)           1.40     -6.58   -7.98  H2Sg	 Pressure  28.8 atm, phi 0.867
  O2(g)            -5.08     -8.21   -3.13  O2

**For a gas, SI = log10(fugacity). Fugacity = pressure * phi / 1 atm.
  For ideal gases, phi = 1.

Reaction step 4.

Using solution 1.	
Using gas phase 1.	
Using temperature 7.	

-----------------------------------Gas phase-----------------------------------

Total pressure: 29.60      atmospheres          (Peng-Robinson calculation)
    Gas volume:   8.49e+00 liters
  Molar volume:   9.60e-01 liters/mole
   P * Vm / RT:  0.88118  (Compressibility Factor Z) 

                                                        Moles in gas
                                            ----------------------------------
Component         log P           P    phi     Initial       Final       Delta

H2O(g)             0.36   2.270e+00  0.852   2.295e-01   6.776e-01   4.481e-01
H2Sg(g)            1.44   2.733e+01  0.894   7.941e+00   8.160e+00   2.187e-01

-----------------------------Solution composition------------------------------

	Elements           Molality       Moles

	Sg                8.507e-01   8.403e-01

----------------------------Description of solution----------------------------

                                       pH  =   3.350      Charge balance
                                       pe  =  10.170      Adjusted to redox equilibrium
      Specific Conductance (µS/cm, 120°C)  = 384
                          Density (g/cm³)  =   0.94275
                               Volume (L)  =   1.07995
                        Activity of water  =   0.987
                 Ionic strength (mol/kgw)  =   4.604e-04
                       Mass of water (kg)  =   9.878e-01
                 Total alkalinity (eq/kg)  =   8.507e-01
                         Temperature (°C)  = 120.00
                           Pressure (atm)  = 29.60
                  Electrical balance (eq)  =  -5.565e-12
 Percent error, 100*(Cat-|An|)/(Cat+|An|)  =  -0.00
                               Iterations  =  36
                                  Total H  = 1.113377e+02
                                  Total O  = 5.482859e+01

----------------------------Distribution of species----------------------------

                                               Log       Log       Log    mole V
   Species          Molality    Activity  Molality  Activity     Gamma   cm³/mol

   H+              4.604e-04   4.472e-04    -3.337    -3.350    -0.013      0.00
   OH-             2.599e-09   2.521e-09    -8.585    -8.598    -0.013     -7.88
   H2O             5.551e+01   9.869e-01     1.744    -0.006     0.000     19.07
H(0)          6.164e-31
   H2              3.082e-31   3.082e-31   -30.511   -30.511     0.000     28.55
O(0)          1.451e-08
   O2              7.254e-09   7.255e-09    -8.139    -8.139     0.000     34.53
Sg            8.507e-01
   H2Sg            6.921e-01   6.921e-01    -0.160    -0.160     0.000     47.34
   (H2Sg)2         7.907e-02   7.908e-02    -1.102    -1.102     0.000     22.77
   HSg-            4.604e-04   4.466e-04    -3.337    -3.350    -0.013     18.52

------------------------------Saturation indices-------------------------------

  Phase               SI** log IAP   log K(393 K,  30 atm)

  H2(g)           -27.44    -30.51   -3.07  H2
  H2O(g)            0.29     -0.01   -0.29  H2O	 Pressure   2.3 atm, phi 0.852
  H2Sg(g)           1.39     -6.70   -8.09  H2Sg	 Pressure  27.3 atm, phi 0.894
  O2(g)            -5.03     -8.14   -3.11  O2

**For a gas, SI = log10(fugacity). Fugacity = pressure * phi / 1 atm.
  For ideal gases, phi = 1.

Reaction step 5.

Using solution 1.	
Using gas phase 1.	
Using temperature 7.	

-----------------------------------Gas phase-----------------------------------

Total pressure: 29.60      atmospheres          (Peng-Robinson calculation)
    Gas volume:   1.07e+01 liters
  Molar volume:   1.06e+00 liters/mole
   P * Vm / RT:  0.90114  (Compressibility Factor Z) 

                                                        Moles in gas
                                            ----------------------------------
Component         log P           P    phi     Initial       Final       Delta

H2O(g)             0.72   5.278e+00  0.868   6.776e-01   1.805e+00   1.128e+00
H2Sg(g)            1.39   2.432e+01  0.917   8.160e+00   8.320e+00   1.599e-01

-----------------------------Solution composition------------------------------

	Elements           Molality       Moles

	Sg                7.033e-01   6.804e-01

----------------------------Description of solution----------------------------

                                       pH  =   3.445      Charge balance
                                       pe  =   8.749      Adjusted to redox equilibrium
      Specific Conductance (µS/cm, 150°C)  = 345
                          Density (g/cm³)  =   0.91618
                               Volume (L)  =   1.08279
                        Activity of water  =   0.989
                 Ionic strength (mol/kgw)  =   3.691e-04
                       Mass of water (kg)  =   9.675e-01
                 Total alkalinity (eq/kg)  =   7.033e-01
                         Temperature (°C)  = 150.00
                           Pressure (atm)  = 29.60
                  Electrical balance (eq)  =  -5.404e-12
 Percent error, 100*(Cat-|An|)/(Cat+|An|)  =  -0.00
                               Iterations  =  36
                                  Total H  = 1.087622e+02
                                  Total O  = 5.370072e+01

----------------------------Distribution of species----------------------------

                                               Log       Log       Log    mole V
   Species          Molality    Activity  Molality  Activity     Gamma   cm³/mol

   H+              3.691e-04   3.587e-04    -3.433    -3.445    -0.012      0.00
   OH-             6.872e-09   6.671e-09    -8.163    -8.176    -0.013    -12.09
   H2O             5.551e+01   9.890e-01     1.744    -0.005     0.000     19.62
H(0)          2.349e-28
   H2              1.175e-28   1.175e-28   -27.930   -27.930     0.000     28.55
O(0)          1.500e-08
   O2              7.501e-09   7.501e-09    -8.125    -8.125     0.000     35.79
Sg            7.033e-01
   H2Sg            5.916e-01   5.917e-01    -0.228    -0.228     0.000     49.81
   (H2Sg)2         5.563e-02   5.564e-02    -1.255    -1.255     0.000     16.62
   HSg-            3.691e-04   3.583e-04    -3.433    -3.446    -0.013     15.41

------------------------------Saturation indices-------------------------------

  Phase               SI** log IAP   log K(423 K,  30 atm)

  H2(g)           -24.94    -27.93   -2.99  H2
  H2O(g)            0.66     -0.00   -0.67  H2O	 Pressure   5.3 atm, phi 0.868
  H2Sg(g)           1.35     -6.89   -8.24  H2Sg	 Pressure  24.3 atm, phi 0.917
  O2(g)            -5.07     -8.12   -3.05  O2

**For a gas, SI = log10(fugacity). Fugacity = pressure * phi / 1 atm.
  For ideal gases, phi = 1.

Reaction step 6.

Using solution 1.	
Using gas phase 1.	
Using temperature 7.	

-----------------------------------Gas phase-----------------------------------

Total pressure: 29.60      atmospheres          (Peng-Robinson calculation)
    Gas volume:   1.53e+01 liters
  Molar volume:   1.14e+00 liters/mole
   P * Vm / RT:  0.90936  (Compressibility Factor Z) 

                                                        Moles in gas
                                            ----------------------------------
Component         log P           P    phi     Initial       Final       Delta

H2O(g)             1.03   1.078e+01  0.876   1.805e+00   4.870e+00   3.065e+00
H2Sg(g)            1.27   1.882e+01  0.938   8.320e+00   8.504e+00   1.847e-01

-----------------------------Solution composition------------------------------

	Elements           Molality       Moles

	Sg                5.434e-01   4.957e-01

----------------------------Description of solution----------------------------

                                       pH  =   3.591      Charge balance
                                       pe  =   7.457      Adjusted to redox equilibrium
      Specific Conductance (µS/cm, 180°C)  = 270
                          Density (g/cm³)  =   0.88561
                               Volume (L)  =   1.05030
                        Activity of water  =   0.991
                 Ionic strength (mol/kgw)  =   2.634e-04
                       Mass of water (kg)  =   9.123e-01
                 Total alkalinity (eq/kg)  =   5.434e-01
                         Temperature (°C)  = 180.00
                           Pressure (atm)  = 29.60
                  Electrical balance (eq)  =  -5.177e-12
 Percent error, 100*(Cat-|An|)/(Cat+|An|)  =  -0.00
                               Iterations  =  37
                                  Total H  = 1.022633e+02
                                  Total O  = 5.063599e+01

----------------------------Distribution of species----------------------------

                                               Log       Log       Log    mole V
   Species          Molality    Activity  Molality  Activity     Gamma   cm³/mol

   H+              2.634e-04   2.565e-04    -3.579    -3.591    -0.012      0.00
   OH-             1.592e-08   1.549e-08    -7.798    -7.810    -0.012    -18.99
[...]
      Specific Conductance (µS/cm,  25°C)  = 208
                          Density (g/cm³)  =   1.02320
                               Volume (L)  =   1.05695
                        Activity of water  =   0.966
                 Ionic strength (mol/kgw)  =   5.058e-04
                       Mass of water (kg)  =   1.000e+00
                 Total alkalinity (eq/kg)  =   2.257e+00
                         Temperature (°C)  =  25.00
                           Pressure (atm)  = 345.17
                  Electrical balance (eq)  =  -6.189e-12
 Percent error, 100*(Cat-|An|)/(Cat+|An|)  =  -0.00
                               Iterations  =  44
                                  Total H  = 1.155264e+02
                                  Total O  = 5.550622e+01

----------------------------Distribution of species----------------------------

                                               Log       Log       Log    mole V
   Species          Molality    Activity  Molality  Activity     Gamma   cm³/mol

   H+              5.058e-04   4.936e-04    -3.296    -3.307    -0.011      0.00
   OH-             2.719e-11   2.651e-11   -10.566   -10.577    -0.011     -2.95
   H2O             5.551e+01   9.655e-01     1.744    -0.015     0.000     17.80
H(0)          0.000e+00
   H2              0.000e+00   0.000e+00   -42.321   -42.321     0.000     28.46
O(0)          1.654e-08
   O2              8.272e-09   8.273e-09    -8.082    -8.082     0.000     29.94
Sg            2.257e+00
   H2Sg            1.798e+00   1.798e+00     0.255     0.255     0.000     32.73
   (H2Sg)2         2.294e-01   2.294e-01    -0.639    -0.639     0.000     44.29
   HSg-            5.058e-04   4.931e-04    -3.296    -3.307    -0.011     20.74

------------------------------Saturation indices-------------------------------

  Phase               SI** log IAP   log K(298 K, 345 atm)

  H2(g)           -39.05    -42.32   -3.27  H2
  H2O(g)           -1.41     -0.02    1.39  H2O
  H2Sg(g)           1.45     -6.61   -8.06  H2Sg
  O2(g)            -5.01     -8.08   -3.08  O2

**For a gas, SI = log10(fugacity). Fugacity = pressure * phi / 1 atm.
  For ideal gases, phi = 1.

Reaction step 10.

Using solution 2.	
Using temperature 1.	
Using pressure 1.	
Using reaction 1.	

Reaction 1.	

	  2.490e-01 moles of the following reaction have been added:

	                 Relative
	Reactant            moles

	H2Sg                 1.00000

	                 Relative
	Element             moles
	H                    2.00000
	Sg                   1.00000

-----------------------------Solution composition------------------------------

	Elements           Molality       Moles

	Sg                2.506e+00   2.506e+00

----------------------------Description of solution----------------------------

                                       pH  =   3.181      Charge balance
                                       pe  =  14.432      Adjusted to redox equilibrium
      Specific Conductance (µS/cm,  50°C)  = 361
                          Density (g/cm³)  =   1.01177
                               Volume (L)  =   1.07777
                        Activity of water  =   0.964
                 Ionic strength (mol/kgw)  =   6.788e-04
                       Mass of water (kg)  =   1.000e+00
                 Total alkalinity (eq/kg)  =   2.506e+00
                         Temperature (°C)  =  50.00
                           Pressure (atm)  = 345.17
                  Electrical balance (eq)  =  -6.200e-12
 Percent error, 100*(Cat-|An|)/(Cat+|An|)  =  -0.00
                               Iterations  =  43
                                  Total H  = 1.160244e+02
                                  Total O  = 5.550622e+01

----------------------------Distribution of species----------------------------

                                               Log       Log       Log    mole V
   Species          Molality    Activity  Molality  Activity     Gamma   cm³/mol

   H+              6.788e-04   6.593e-04    -3.168    -3.181    -0.013      0.00
   OH-             1.099e-10   1.066e-10    -9.959    -9.972    -0.013     -4.14
   H2O             5.551e+01   9.640e-01     1.744    -0.016     0.000     17.97
H(0)          4.635e-39
   H2              2.318e-39   2.318e-39   -38.635   -38.635     0.000     28.44
O(0)          2.036e-08
   O2              1.018e-08   1.018e-08    -7.992    -7.992     0.000     31.22
Sg            2.506e+00
   H2Sg            1.724e+00   1.724e+00     0.237     0.237     0.000     36.82
   (H2Sg)2         3.906e-01   3.906e-01    -0.408    -0.408     0.000     43.16
   HSg-            6.788e-04   6.584e-04    -3.168    -3.182    -0.013     21.16

------------------------------Saturation indices-------------------------------

  Phase               SI** log IAP   log K(323 K, 345 atm)

  H2(g)           -35.34    -38.63   -3.30  H2
  H2O(g)           -0.83     -0.02    0.81  H2O
  H2Sg(g)           1.67     -6.36   -8.03  H2Sg
  O2(g)            -4.79     -7.99   -3.21  O2

**For a gas, SI = log10(fugacity). Fugacity = pressure * phi / 1 atm.
  For ideal gases, phi = 1.

Reaction step 11.

Using solution 2.	
Using temperature 1.	
Using pressure 1.	
Using reaction 1.	

Reaction 1.	

	  2.500e-01 moles of the following reaction have been added:

	                 Relative
	Reactant            moles

	H2Sg                 1.00000

	                 Relative
	Element             moles
	H                    2.00000
	Sg                   1.00000

-----------------------------Solution composition------------------------------

	Elements           Molality       Moles

	Sg                2.756e+00   2.756e+00

----------------------------Description of solution----------------------------

                                       pH  =   3.110      Charge balance
                                       pe  =  11.474      Adjusted to redox equilibrium
      Specific Conductance (µS/cm, 100°C)  = 591
                          Density (g/cm³)  =   0.98605
                               Volume (L)  =   1.11504
                        Activity of water  =   0.963
                 Ionic strength (mol/kgw)  =   8.048e-04
                       Mass of water (kg)  =   1.000e+00
                 Total alkalinity (eq/kg)  =   2.756e+00
                         Temperature (°C)  = 100.00
                           Pressure (atm)  = 345.17
                  Electrical balance (eq)  =  -6.201e-12
 Percent error, 100*(Cat-|An|)/(Cat+|An|)  =  -0.00
                               Iterations  =  47
                                  Total H  = 1.165244e+02
                                  Total O  = 5.550622e+01

----------------------------Distribution of species----------------------------

                                               Log       Log       Log    mole V
   Species          Molality    Activity  Molality  Activity     Gamma   cm³/mol

   H+              8.048e-04   7.770e-04    -3.094    -3.110    -0.015      0.00
   OH-             9.927e-10   9.567e-10    -9.003    -9.019    -0.016     -7.27
   H2O             5.551e+01   9.632e-01     1.744    -0.016     0.000     18.50
H(0)          3.854e-33
   H2              1.927e-33   1.927e-33   -32.715   -32.715     0.000     28.42
O(0)          2.515e-08
   O2              1.258e-08   1.258e-08    -7.900    -7.900     0.000     32.87
Sg            2.756e+00
   H2Sg            1.572e+00   1.572e+00     0.196     0.197     0.000     41.40
   (H2Sg)2         5.915e-01   5.917e-01    -0.228    -0.228     0.000     39.35
   HSg-            8.048e-04   7.755e-04    -3.094    -3.110    -0.016     20.06

------------------------------Saturation indices-------------------------------

  Phase               SI** log IAP   log K(373 K, 345 atm)

  H2(g)           -29.48    -32.72   -3.24  H2
  H2O(g)            0.07     -0.02   -0.09  H2O
  H2Sg(g)           1.88     -6.22   -8.10  H2Sg
  O2(g)            -4.63     -7.90   -3.28  O2

**For a gas, SI = log10(fugacity). Fugacity = pressure * phi / 1 atm.
  For ideal gases, phi = 1.

Reaction step 12.

Using solution 2.	
Using temperature 1.	
Using pressure 1.	
Using reaction 1.	

Reaction 1.	

	  2.520e-01 moles of the following reaction have been added:

	                 Relative
	Reactant            moles

	H2Sg                 1.00000

	                 Relative
	Element             moles
	H                    2.00000
	Sg                   1.00000

-----------------------------Solution composition------------------------------

	Elements           Molality       Moles

	Sg                3.008e+00   3.008e+00

----------------------------Description of solution----------------------------

                                       pH  =   3.171      Charge balance
                                       pe  =   9.095      Adjusted to redox equilibrium
      Specific Conductance (µS/cm, 150°C)  = 625
                          Density (g/cm³)  =   0.95232
                               Volume (L)  =   1.16408
                        Activity of water  =   0.961
                 Ionic strength (mol/kgw)  =   7.001e-04
                       Mass of water (kg)  =   1.000e+00
                 Total alkalinity (eq/kg)  =   3.008e+00
                         Temperature (°C)  = 150.00
                           Pressure (atm)  = 345.17
                  Electrical balance (eq)  =  -6.201e-12
 Percent error, 100*(Cat-|An|)/(Cat+|An|)  =  -0.00
                               Iterations  =  53
                                  Total H  = 1.170284e+02
                                  Total O  = 5.550622e+01

----------------------------Distribution of species----------------------------

                                               Log       Log       Log    mole V
   Species          Molality    Activity  Molality  Activity     Gamma   cm³/mol

   H+              7.001e-04   6.743e-04    -3.155    -3.171    -0.016      0.00
   OH-             4.795e-09   4.610e-09    -8.319    -8.336    -0.017    -12.70
   H2O             5.551e+01   9.606e-01     1.744    -0.017     0.000     19.26
H(0)          1.304e-28
   H2              6.519e-29   6.520e-29   -28.186   -28.186     0.000     28.41
O(0)          2.845e-08
   O2              1.423e-08   1.423e-08    -7.847    -7.847     0.000     34.49
Sg            3.008e+00
   H2Sg            1.623e+00   1.623e+00     0.210     0.210     0.000     44.86
   (H2Sg)2         6.921e-01   6.922e-01    -0.160    -0.160     0.000     32.13
   HSg-            7.001e-04   6.730e-04    -3.155    -3.172    -0.017     16.55

------------------------------Saturation indices-------------------------------

  Phase               SI** log IAP   log K(423 K, 345 atm)

  H2(g)           -25.08    -28.19   -3.10  H2
  H2O(g)            0.72     -0.02   -0.74  H2O
  H2Sg(g)           1.96     -6.34   -8.30  H2Sg
  O2(g)            -4.66     -7.85   -3.19  O2

**For a gas, SI = log10(fugacity). Fugacity = pressure * phi / 1 atm.
  For ideal gases, phi = 1.

Reaction step 13.

Using solution 2.	
Using temperature 1.	
Using pressure 1.	
Using reaction 1.	

Reaction 1.	

	  2.530e-01 moles of the following reaction have been added:

	                 Relative
	Reactant            moles

	H2Sg                 1.00000

	                 Relative
	Element             moles
	H                    2.00000
	Sg                   1.00000

-----------------------------Solution composition------------------------------

	Elements           Molality       Moles

	Sg                3.261e+00   3.261e+00

----------------------------Description of solution----------------------------

                                       pH  =   3.318      Charge balance
                                       pe  =   7.123      Adjusted to redox equilibrium
      Specific Conductance (µS/cm, 200°C)  = 510
                          Density (g/cm³)  =   0.90932
                               Volume (L)  =   1.22917
                        Activity of water  =   0.957
                 Ionic strength (mol/kgw)  =   4.992e-04
                       Mass of water (kg)  =   1.000e+00
                 Total alkalinity (eq/kg)  =   3.261e+00
                         Temperature (°C)  = 200.20
                           Pressure (atm)  = 345.07
                  Electrical balance (eq)  =  -6.186e-12
 Percent error, 100*(Cat-|An|)/(Cat+|An|)  =  -0.00
                               Iterations  =  42
                                  Total H  = 1.175344e+02
                                  Total O  = 5.550622e+01

----------------------------Distribution of species----------------------------

                                               Log       Log       Log    mole V
   Species          Molality    Activity  Molality  Activity     Gamma   cm³/mol

   H+              4.992e-04   4.810e-04    -3.302    -3.318    -0.016      0.00
   OH-             1.461e-08   1.406e-08    -7.835    -7.852    -0.017    -23.24
   H2O             5.551e+01   9.568e-01     1.744    -0.019     0.000     20.30
H(0)          4.807e-25
   H2              2.404e-25   2.404e-25   -24.619   -24.619     0.000     28.41
O(0)          3.388e-08
   O2              1.694e-08   1.694e-08    -7.771    -7.771     0.000     36.99
Sg            3.261e+00
   H2Sg            1.819e+00   1.819e+00     0.260     0.260     0.000     49.21
   (H2Sg)2         7.208e-01   7.209e-01    -0.142    -0.142     0.000     17.81
   HSg-            4.992e-04   4.802e-04    -3.302    -3.319    -0.017      8.90

------------------------------Saturation indices-------------------------------

  Phase               SI** log IAP   log K(473 K, 345 atm)

  H2(g)           -21.70    -24.62   -2.92  H2
  H2O(g)            1.21     -0.02   -1.23  H2O
  H2Sg(g)           1.97     -6.64   -8.61  H2Sg
  O2(g)            -4.76     -7.77   -3.01  O2

**For a gas, SI = log10(fugacity). Fugacity = pressure * phi / 1 atm.
  For ideal gases, phi = 1.

Reaction step 14.

Using solution 2.	
Using temperature 1.	
Using pressure 1.	
Using reaction 1.	

Reaction 1.	

	  2.670e-01 moles of the following reaction have been added:

	                 Relative
	Reactant            moles

	H2Sg                 1.00000

	                 Relative
	Element             moles
	H                    2.00000
	Sg                   1.00000

-----------------------------Solution composition------------------------------

	Elements           Molality       Moles

	Sg                3.528e+00   3.528e+00

----------------------------Description of solution----------------------------

                                       pH  =   3.517      Charge balance
                                       pe  =   5.459      Adjusted to redox equilibrium
      Specific Conductance (µS/cm, 250°C)  = 355
                          Density (g/cm³)  =   0.85832
                               Volume (L)  =   1.31343
                        Activity of water  =   0.952
                 Ionic strength (mol/kgw)  =   3.146e-04
                       Mass of water (kg)  =   1.000e+00
                 Total alkalinity (eq/kg)  =   3.528e+00
                         Temperature (°C)  = 250.00
                           Pressure (atm)  = 345.17
                  Electrical balance (eq)  =  -5.486e-12
 Percent error, 100*(Cat-|An|)/(Cat+|An|)  =  -0.00
                               Iterations  =  35
                                  Total H  = 1.180684e+02
                                  Total O  = 5.550622e+01

----------------------------Distribution of species----------------------------

                                               Log       Log       Log    mole V
   Species          Molality    Activity  Molality  Activity     Gamma   cm³/mol

   H+              3.146e-04   3.037e-04    -3.502    -3.517    -0.015      0.00
   OH-             3.060e-08   2.950e-08    -7.514    -7.530    -0.016    -45.87
   H2O             5.551e+01   9.523e-01     1.744    -0.021     0.000     21.70
H(0)          3.505e-22
   H2              1.753e-22   1.753e-22   -21.756   -21.756     0.000     28.40
O(0)          3.816e-08
   O2              1.908e-08   1.908e-08    -7.719    -7.719     0.000     41.92
Sg            3.528e+00
   H2Sg            2.080e+00   2.080e+00     0.318     0.318     0.000     56.98
   (H2Sg)2         7.240e-01   7.240e-01    -0.140    -0.140     0.000    -13.09
   HSg-            3.146e-04   3.033e-04    -3.502    -3.518    -0.016     -8.09

------------------------------Saturation indices-------------------------------

  Phase               SI** log IAP   log K(523 K, 345 atm)

  H2(g)           -19.05    -21.76   -2.71  H2
  H2O(g)            1.58     -0.02   -1.60  H2O
  H2Sg(g)           1.94     -7.04   -8.97  H2Sg
  O2(g)            -4.94     -7.72   -2.78  O2

**For a gas, SI = log10(fugacity). Fugacity = pressure * phi / 1 atm.
  For ideal gases, phi = 1.

Reaction step 15.

Using solution 2.	
Using temperature 1.	
Using pressure 1.	
Using reaction 1.	

Reaction 1.	

	  2.590e-01 moles of the following reaction have been added:

	                 Relative
	Reactant            moles

	H2Sg                 1.00000

	                 Relative
	Element             moles
	H                    2.00000
	Sg                   1.00000

-----------------------------Solution composition------------------------------

	Elements           Molality       Moles

	Sg                3.787e+00   3.787e+00

----------------------------Description of solution----------------------------

                                       pH  =   3.739      Charge balance
                                       pe  =   4.019      Adjusted to redox equilibrium
      Specific Conductance (µS/cm, 300°C)  = 235
                          Density (g/cm³)  =   0.80840
                               Volume (L)  =   1.40610
                        Activity of water  =   0.949
                 Ionic strength (mol/kgw)  =   1.884e-04
                       Mass of water (kg)  =   1.000e+00
                 Total alkalinity (eq/kg)  =   3.787e+00
                         Temperature (°C)  = 300.00
                           Pressure (atm)  = 345.07
                  Electrical balance (eq)  =  -4.021e-12
 Percent error, 100*(Cat-|An|)/(Cat+|An|)  =  -0.00
                               Iterations  =  33
                                  Total H  = 1.185864e+02
                                  Total O  = 5.550622e+01

----------------------------Distribution of species----------------------------

                                               Log       Log       Log    mole V
   Species          Molality    Activity  Molality  Activity     Gamma   cm³/mol

   H+              1.884e-04   1.822e-04    -3.725    -3.739    -0.015      0.00
   OH-             5.138e-08   4.964e-08    -7.289    -7.304    -0.015   -106.16
   H2O             5.551e+01   9.495e-01     1.744    -0.023     0.000     23.77
H(0)          8.438e-20
   H2              4.219e-20   4.219e-20   -19.375   -19.375     0.000     28.40
O(0)          3.885e-08
   O2              1.943e-08   1.943e-08    -7.712    -7.712     0.000     54.67
Sg            3.787e+00
   H2Sg            2.155e+00   2.155e+00     0.333     0.333     0.000     76.35
   (H2Sg)2         8.161e-01   8.162e-01    -0.088    -0.088     0.000    -95.59
   HSg-            1.884e-04   1.820e-04    -3.725    -3.740    -0.015    -53.84

------------------------------Saturation indices-------------------------------

  Phase               SI** log IAP   log K(573 K, 345 atm)

  H2(g)           -16.90    -19.37   -2.48  H2
  H2O(g)            1.86     -0.02   -1.88  H2O
  H2Sg(g)           1.85     -7.48   -9.33  H2Sg
  O2(g)            -5.17     -7.71   -2.54  O2

**For a gas, SI = log10(fugacity). Fugacity = pressure * phi / 1 atm.
  For ideal gases, phi = 1.

------------------
End of simulation.
------------------

-------------------------------------
Reading input data for simulation 25.
-------------------------------------

