   Input file: H_K
  Output file: H_K.out
Database file: ../database/phreeqc.dat

------------------
Reading data base.
------------------

	SOLUTION_MASTER_SPECIES
	SOLUTION_SPECIES
	PHASES
	EXCHANGE_MASTER_SPECIES
	EXCHANGE_SPECIES
	SURFACE_MASTER_SPECIES
	SURFACE_SPECIES
	RATES
	END
------------------------------------
Reading input data for simulation 1.
------------------------------------

	DATABASE ../database/phreeqc.dat
	SOLUTION
	REACTION_TEMPERATURE
	 0 300 in 31
	USER_GRAPH
	 -axis_titles "temp / oC" "DH_A / (mol/kg)^-0.5" "DH_B / (Angstrom^-1 (mol/kg)^-0.5)"
	 -connect_simulations false
	 -plot_tsv_file H_K.tsv
	 10 graph_x tc
	 20 graph_y DH_A
	 30 graph_sy DH_B
	END
-------------------------------------------
Beginning of initial solution calculations.
-------------------------------------------

Initial solution 1.	

-----------------------------Solution composition------------------------------

	Elements           Molality       Moles

	Pure water     

----------------------------Description of solution----------------------------

                                       pH  =   7.000    
                                       pe  =   4.000    
       Specific Conductance (uS/cm, 25 oC) = 0
                          Density (g/cm3)  =   0.99705
                        Activity of water  =   1.000
                           Ionic strength  =  1.002e-007
                       Mass of water (kg)  =  1.000e+000
                 Total alkalinity (eq/kg)  =  2.208e-010
                    Total carbon (mol/kg)  =  0.000e+000
                       Total CO2 (mol/kg)  =  0.000e+000
                      Temperature (deg C)  =  25.00
                  Electrical balance (eq)  = -2.208e-010
 Percent error, 100*(Cat-|An|)/(Cat+|An|)  =  -0.11
                               Iterations  =   0
                                  Total H  = 1.110124e+002
                                  Total O  = 5.550622e+001

----------------------------Distribution of species----------------------------

                                               Log       Log       Log    mole V
   Species          Molality    Activity  Molality  Activity     Gamma   cm3/mol

   OH-            1.003e-007  1.002e-007    -6.999    -6.999    -0.000     -4.11
   H+             1.001e-007  1.000e-007    -7.000    -7.000    -0.000      0.00
   H2O            5.551e+001  1.000e+000     1.744     0.000     0.000     18.07
H(0)         1.416e-025
   H2             7.079e-026  7.079e-026   -25.150   -25.150     0.000     28.61
O(0)         0.000e+000
   O2             0.000e+000  0.000e+000   -42.080   -42.080     0.000     30.40

------------------------------Saturation indices-------------------------------

	Phase               SI   log IAP   log K(298 K,   1 atm)

	H2(g)           -22.05    -25.15   -3.10  H2
	H2O(g)           -1.50      0.00    1.50  H2O
	O2(g)           -39.19    -42.08   -2.89  O2


-----------------------------------------
Beginning of batch-reaction calculations.
-----------------------------------------

Reaction step 1.

Using solution 1.	
Using temperature 1.	

-----------------------------Solution composition------------------------------

	Elements           Molality       Moles

	Pure water     

----------------------------Description of solution----------------------------

                                       pH  =   7.481      Charge balance
                                       pe  =  -1.684      Adjusted to redox equilibrium
       Specific Conductance (uS/cm, 0 oC) = 0
                          Density (g/cm3)  =   0.99984
                        Activity of water  =   1.000
                           Ionic strength  =  3.313e-008
                       Mass of water (kg)  =  1.000e+000
                 Total alkalinity (eq/kg)  =  2.208e-010
                    Total carbon (mol/kg)  =  0.000e+000
                       Total CO2 (mol/kg)  =  0.000e+000
                      Temperature (deg C)  =   0.00
                  Electrical balance (eq)  = -2.208e-010
 Percent error, 100*(Cat-|An|)/(Cat+|An|)  =  -0.33
                               Iterations  =  33
                                  Total H  = 1.110124e+002
                                  Total O  = 5.550622e+001

----------------------------Distribution of species----------------------------

                                               Log       Log       Log    mole V
   Species          Molality    Activity  Molality  Activity     Gamma   cm3/mol

   OH-            3.324e-008  3.323e-008    -7.478    -7.478    -0.000     -6.62
   H+             3.302e-008  3.301e-008    -7.481    -7.481    -0.000      0.00
   H2O            5.551e+001  1.000e+000     1.744    -0.000     0.000     18.02
H(0)         4.726e-015
   H2             2.363e-015  2.363e-015   -14.627   -14.627     0.000     28.65
O(0)         0.000e+000
   O2             0.000e+000  0.000e+000   -71.933   -71.933     0.000     27.49

------------------------------Saturation indices-------------------------------

	Phase               SI   log IAP   log K(273 K,   1 atm)

	H2(g)           -11.62    -14.63   -3.01  H2
	H2O(g)           -2.21     -0.00    2.21  H2O
	O2(g)           -69.27    -71.93   -2.66  O2


Reaction step 2.

Using solution 1.	
Using temperature 1.	

-----------------------------Solution composition------------------------------

	Elements           Molality       Moles

	Pure water     

----------------------------Description of solution----------------------------

                                       pH  =   7.273      Charge balance
                                       pe  =  -1.500      Adjusted to redox equilibrium
       Specific Conductance (uS/cm, 10 oC) = 0
                          Density (g/cm3)  =   0.99970
                        Activity of water  =   1.000
                           Ionic strength  =  5.349e-008
                       Mass of water (kg)  =  1.000e+000
                 Total alkalinity (eq/kg)  =  2.208e-010
                    Total carbon (mol/kg)  =  0.000e+000
                       Total CO2 (mol/kg)  =  0.000e+000
                      Temperature (deg C)  =  10.00
                  Electrical balance (eq)  = -2.208e-010
 Percent error, 100*(Cat-|An|)/(Cat+|An|)  =  -0.21
                               Iterations  =  32
                                  Total H  = 1.110124e+002
                                  Total O  = 5.550622e+001

----------------------------Distribution of species----------------------------

                                               Log       Log       Log    mole V
   Species          Molality    Activity  Molality  Activity     Gamma   cm3/mol

   OH-            5.360e-008  5.358e-008    -7.271    -7.271    -0.000     -5.22
   H+             5.338e-008  5.336e-008    -7.273    -7.273    -0.000      0.00
   H2O            5.551e+001  1.000e+000     1.744    -0.000     0.000     18.02
H(0)         4.726e-015
   H2             2.363e-015  2.363e-015   -14.627   -14.627     0.000     28.63
O(0)         0.000e+000
   O2             0.000e+000  0.000e+000   -68.224   -68.224     0.000     28.95

------------------------------Saturation indices-------------------------------

	Phase               SI   log IAP   log K(283 K,   1 atm)

	H2(g)           -11.57    -14.63   -3.05  H2
	H2O(g)           -1.91     -0.00    1.91  H2O
	O2(g)           -65.46    -68.22   -2.77  O2


Reaction step 3.

Using solution 1.	
Using temperature 1.	

-----------------------------Solution composition------------------------------

	Elements           Molality       Moles

	Pure water     

----------------------------Description of solution----------------------------

                                       pH  =   7.086      Charge balance
                                       pe  =  -1.337      Adjusted to redox equilibrium
       Specific Conductance (uS/cm, 20 oC) = 0
                          Density (g/cm3)  =   0.99821
                        Activity of water  =   1.000
                           Ionic strength  =  8.216e-008
                       Mass of water (kg)  =  1.000e+000
                 Total alkalinity (eq/kg)  =  2.208e-010
                    Total carbon (mol/kg)  =  0.000e+000
                       Total CO2 (mol/kg)  =  0.000e+000
                      Temperature (deg C)  =  20.00
                  Electrical balance (eq)  = -2.208e-010
 Percent error, 100*(Cat-|An|)/(Cat+|An|)  =  -0.13
                               Iterations  =  32
                                  Total H  = 1.110124e+002
                                  Total O  = 5.550622e+001

----------------------------Distribution of species----------------------------

                                               Log       Log       Log    mole V
   Species          Molality    Activity  Molality  Activity     Gamma   cm3/mol

   OH-            8.227e-008  8.224e-008    -7.085    -7.085    -0.000     -4.38
   H+             8.205e-008  8.202e-008    -7.086    -7.086    -0.000      0.00
   H2O            5.551e+001  1.000e+000     1.744    -0.000     0.000     18.05
H(0)         4.726e-015
   H2             2.363e-015  2.363e-015   -14.627   -14.627     0.000     28.61
O(0)         0.000e+000
   O2             0.000e+000  0.000e+000   -64.768   -64.768     0.000     29.98

------------------------------Saturation indices-------------------------------

	Phase               SI   log IAP   log K(293 K,   1 atm)

	H2(g)           -11.54    -14.63   -3.09  H2
	H2O(g)           -1.63     -0.00    1.63  H2O
	O2(g)           -61.91    -64.77   -2.85  O2


Reaction step 4.

Using solution 1.	
Using temperature 1.	

-----------------------------Solution composition------------------------------

	Elements           Molality       Moles

	Pure water     

----------------------------Description of solution----------------------------

                                       pH  =   6.918      Charge balance
                                       pe  =  -1.191      Adjusted to redox equilibrium
       Specific Conductance (uS/cm, 30 oC) = 0
                          Density (g/cm3)  =   0.99565
                        Activity of water  =   1.000
                           Ionic strength  =  1.208e-007
                       Mass of water (kg)  =  1.000e+000
                 Total alkalinity (eq/kg)  =  2.208e-010
                    Total carbon (mol/kg)  =  0.000e+000
                       Total CO2 (mol/kg)  =  0.000e+000
                      Temperature (deg C)  =  30.00
                  Electrical balance (eq)  = -2.208e-010
 Percent error, 100*(Cat-|An|)/(Cat+|An|)  =  -0.09
                               Iterations  =  10
                                  Total H  = 1.110124e+002
                                  Total O  = 5.550622e+001

----------------------------Distribution of species----------------------------

                                               Log       Log       Log    mole V
   Species          Molality    Activity  Molality  Activity     Gamma   cm3/mol

   OH-            1.209e-007  1.209e-007    -6.917    -6.918    -0.000     -3.91
   H+             1.207e-007  1.207e-007    -6.918    -6.918    -0.000      0.00
   H2O            5.551e+001  1.000e+000     1.744    -0.000     0.000     18.09
H(0)         4.726e-015
   H2             2.363e-015  2.363e-015   -14.627   -14.627     0.000     28.60
O(0)         0.000e+000
   O2             0.000e+000  0.000e+000   -61.540   -61.540     0.000     30.77

------------------------------Saturation indices-------------------------------

	Phase               SI   log IAP   log K(303 K,   1 atm)

	H2(g)           -11.51    -14.63   -3.11  H2
	H2O(g)           -1.38     -0.00    1.38  H2O
	O2(g)           -58.61    -61.54   -2.93  O2


Reaction step 5.

Using solution 1.	
Using temperature 1.	

-----------------------------Solution composition------------------------------

	Elements           Molality       Moles

	Pure water     

----------------------------Description of solution----------------------------

                                       pH  =   6.767      Charge balance
                                       pe  =  -1.060      Adjusted to redox equilibrium
       Specific Conductance (uS/cm, 40 oC) = 0
                          Density (g/cm3)  =   0.99222
                        Activity of water  =   1.000
                           Ionic strength  =  1.711e-007
                       Mass of water (kg)  =  1.000e+000
                 Total alkalinity (eq/kg)  =  2.208e-010
                    Total carbon (mol/kg)  =  0.000e+000
                       Total CO2 (mol/kg)  =  0.000e+000
                      Temperature (deg C)  =  40.00
                  Electrical balance (eq)  = -2.208e-010
 Percent error, 100*(Cat-|An|)/(Cat+|An|)  =  -0.06
                               Iterations  =  10
                                  Total H  = 1.110124e+002
                                  Total O  = 5.550622e+001

----------------------------Distribution of species----------------------------

                                               Log       Log       Log    mole V
   Species          Molality    Activity  Molality  Activity     Gamma   cm3/mol

   OH-            1.712e-007  1.711e-007    -6.767    -6.767    -0.000     -3.71
   H+             1.710e-007  1.709e-007    -6.767    -6.767    -0.000      0.00
   H2O            5.551e+001  1.000e+000     1.744    -0.000     0.000     18.16
H(0)         4.727e-015
   H2             2.363e-015  2.363e-015   -14.626   -14.626     0.000     28.59
O(0)         0.000e+000
   O2             0.000e+000  0.000e+000   -58.518   -58.518     0.000     31.40

------------------------------Saturation indices-------------------------------

	Phase               SI   log IAP   log K(313 K,   1 atm)

	H2(g)           -11.50    -14.63   -3.13  H2
	H2O(g)           -1.14     -0.00    1.14  H2O
	O2(g)           -55.53    -58.52   -2.98  O2


Reaction step 6.

Using solution 1.	
Using temperature 1.	

-----------------------------Solution composition------------------------------

	Elements           Molality       Moles

	Pure water     

----------------------------Description of solution----------------------------

                                       pH  =   6.631      Charge balance
                                       pe  =  -0.943      Adjusted to redox equilibrium
       Specific Conductance (uS/cm, 50 oC) = 0
                          Density (g/cm3)  =   0.98805
                        Activity of water  =   1.000
                           Ionic strength  =  2.341e-007
                       Mass of water (kg)  =  1.000e+000
                 Total alkalinity (eq/kg)  =  2.208e-010
                    Total carbon (mol/kg)  =  0.000e+000
                       Total CO2 (mol/kg)  =  0.000e+000
                      Temperature (deg C)  =  50.00
                  Electrical balance (eq)  = -2.208e-010
 Percent error, 100*(Cat-|An|)/(Cat+|An|)  =  -0.05
                               Iterations  =  10
                                  Total H  = 1.110124e+002
                                  Total O  = 5.550622e+001

----------------------------Distribution of species----------------------------

                                               Log       Log       Log    mole V
   Species          Molality    Activity  Molality  Activity     Gamma   cm3/mol

   OH-            2.342e-007  2.341e-007    -6.630    -6.631    -0.000     -3.72
   H+             2.340e-007  2.339e-007    -6.631    -6.631    -0.000      0.00
   H2O            5.551e+001  1.000e+000     1.744    -0.000     0.000     18.23
H(0)         4.730e-015
   H2             2.365e-015  2.365e-015   -14.626   -14.626     0.000     28.59
O(0)         0.000e+000
   O2             0.000e+000  0.000e+000   -55.684   -55.684     0.000     31.92

------------------------------Saturation indices-------------------------------

	Phase               SI   log IAP   log K(323 K,   1 atm)

	H2(g)           -11.49    -14.63   -3.14  H2
	H2O(g)           -0.92     -0.00    0.92  H2O
	O2(g)           -52.65    -55.68   -3.03  O2


Reaction step 7.

Using solution 1.	
Using temperature 1.	

-----------------------------Solution composition------------------------------

	Elements           Molality       Moles

	Pure water     

----------------------------Description of solution----------------------------

                                       pH  =   6.508      Charge balance
                                       pe  =  -0.838      Adjusted to redox equilibrium
       Specific Conductance (uS/cm, 60 oC) = 0
                          Density (g/cm3)  =   0.98321
                        Activity of water  =   1.000
                           Ionic strength  =  3.110e-007
                       Mass of water (kg)  =  1.000e+000
                 Total alkalinity (eq/kg)  =  2.208e-010
                    Total carbon (mol/kg)  =  0.000e+000
                       Total CO2 (mol/kg)  =  0.000e+000
                      Temperature (deg C)  =  60.00
                  Electrical balance (eq)  = -2.208e-010
 Percent error, 100*(Cat-|An|)/(Cat+|An|)  =  -0.04
                               Iterations  =  10
                                  Total H  = 1.110124e+002
                                  Total O  = 5.550622e+001

----------------------------Distribution of species----------------------------

                                               Log       Log       Log    mole V
   Species          Molality    Activity  Molality  Activity     Gamma   cm3/mol

   OH-            3.111e-007  3.109e-007    -6.507    -6.507    -0.000     -3.90
   H+             3.109e-007  3.107e-007    -6.507    -6.508    -0.000      0.00
   H2O            5.551e+001  1.000e+000     1.744    -0.000     0.000     18.32
H(0)         4.745e-015
   H2             2.373e-015  2.373e-015   -14.625   -14.625     0.000     28.58
O(0)         0.000e+000
   O2             0.000e+000  0.000e+000   -53.022   -53.022     0.000     32.38

------------------------------Saturation indices-------------------------------

	Phase               SI   log IAP   log K(333 K,   1 atm)

	H2(g)           -11.49    -14.62   -3.14  H2
	H2O(g)           -0.71     -0.00    0.71  H2O
	O2(g)           -49.96    -53.02   -3.06  O2


Reaction step 8.

Using solution 1.	
Using temperature 1.	

-----------------------------Solution composition------------------------------

	Elements           Molality       Moles

	Pure water     

----------------------------Description of solution----------------------------

                                       pH  =   6.396      Charge balance
                                       pe  =  -0.745      Adjusted to redox equilibrium
       Specific Conductance (uS/cm, 70 oC) = 0
                          Density (g/cm3)  =   0.97778
                        Activity of water  =   1.000
                           Ionic strength  =  4.022e-007
                       Mass of water (kg)  =  1.000e+000
                 Total alkalinity (eq/kg)  =  2.208e-010
                    Total carbon (mol/kg)  =  0.000e+000
                       Total CO2 (mol/kg)  =  0.000e+000
                      Temperature (deg C)  =  70.00
                  Electrical balance (eq)  = -2.208e-010
 Percent error, 100*(Cat-|An|)/(Cat+|An|)  =  -0.03
                               Iterations  =  10
                                  Total H  = 1.110124e+002
                                  Total O  = 5.550622e+001

----------------------------Distribution of species----------------------------

                                               Log       Log       Log    mole V
   Species          Molality    Activity  Molality  Activity     Gamma   cm3/mol

   OH-            4.023e-007  4.020e-007    -6.395    -6.396    -0.000     -4.25
   H+             4.021e-007  4.017e-007    -6.396    -6.396    -0.000      0.00
   H2O            5.551e+001  1.000e+000     1.744    -0.000     0.000     18.43
H(0)         4.791e-015
   H2             2.395e-015  2.395e-015   -14.621   -14.621     0.000     28.58
O(0)         0.000e+000
   O2             0.000e+000  0.000e+000   -50.521   -50.521     0.000     32.79

------------------------------Saturation indices-------------------------------

	Phase               SI   log IAP   log K(343 K,   1 atm)

	H2(g)           -11.48    -14.62   -3.14  H2
	H2O(g)           -0.51     -0.00    0.51  H2O
	O2(g)           -47.43    -50.52   -3.09  O2


Reaction step 9.

Using solution 1.	
Using temperature 1.	

-----------------------------Solution composition------------------------------

	Elements           Molality       Moles

	Pure water     

----------------------------Description of solution----------------------------

                                       pH  =   6.295      Charge balance
                                       pe  =  -0.657      Adjusted to redox equilibrium
       Specific Conductance (uS/cm, 80 oC) = 0
                          Density (g/cm3)  =   0.97180
                        Activity of water  =   1.000
                           Ionic strength  =  5.078e-007
                       Mass of water (kg)  =  1.000e+000
                 Total alkalinity (eq/kg)  =  2.208e-010
                    Total carbon (mol/kg)  =  0.000e+000
                       Total CO2 (mol/kg)  =  0.000e+000
                      Temperature (deg C)  =  80.00
                  Electrical balance (eq)  = -2.208e-010
 Percent error, 100*(Cat-|An|)/(Cat+|An|)  =  -0.02
                               Iterations  =  11
                                  Total H  = 1.110124e+002
                                  Total O  = 5.550622e+001

----------------------------Distribution of species----------------------------

                                               Log       Log       Log    mole V
   Species          Molality    Activity  Molality  Activity     Gamma   cm3/mol

   OH-            5.079e-007  5.074e-007    -6.294    -6.295    -0.000     -4.75
   H+             5.076e-007  5.072e-007    -6.294    -6.295    -0.000      0.00
   H2O            5.551e+001  1.000e+000     1.744    -0.000     0.000     18.54
H(0)         4.729e-015
   H2             2.364e-015  2.364e-015   -14.626   -14.626     0.000     28.57
O(0)         0.000e+000
   O2             0.000e+000  0.000e+000   -48.142   -48.142     0.000     33.17

------------------------------Saturation indices-------------------------------

	Phase               SI   log IAP   log K(353 K,   1 atm)

	H2(g)           -11.50    -14.63   -3.13  H2
	H2O(g)           -0.33     -0.00    0.33  H2O
	O2(g)           -45.04    -48.14   -3.11  O2


Reaction step 10.

Using solution 1.	
Using temperature 1.	

-----------------------------Solution composition------------------------------

	Elements           Molality       Moles

	Pure water     

----------------------------Description of solution----------------------------

                                       pH  =   6.203      Charge balance
                                       pe  =  -0.581      Adjusted to redox equilibrium
       Specific Conductance (uS/cm, 90 oC) = 0
                          Density (g/cm3)  =   0.96532
                        Activity of water  =   1.000
                           Ionic strength  =  6.272e-007
                       Mass of water (kg)  =  1.000e+000
                 Total alkalinity (eq/kg)  =  2.208e-010
                    Total carbon (mol/kg)  =  0.000e+000
                       Total CO2 (mol/kg)  =  0.000e+000
                      Temperature (deg C)  =  90.00
                  Electrical balance (eq)  = -2.208e-010
 Percent error, 100*(Cat-|An|)/(Cat+|An|)  =  -0.02
                               Iterations  =  11
                                  Total H  = 1.110124e+002
                                  Total O  = 5.550622e+001

----------------------------Distribution of species----------------------------

                                               Log       Log       Log    mole V
   Species          Molality    Activity  Molality  Activity     Gamma   cm3/mol

   OH-            6.273e-007  6.267e-007    -6.202    -6.203    -0.000     -5.41
   H+             6.271e-007  6.264e-007    -6.203    -6.203    -0.000      0.00
   H2O            5.551e+001  1.000e+000     1.744    -0.000     0.000     18.66
H(0)         4.741e-015
   H2             2.371e-015  2.371e-015   -14.625   -14.625     0.000     28.57
O(0)         0.000e+000
   O2             0.000e+000  0.000e+000   -45.907   -45.907     0.000     33.54

------------------------------Saturation indices-------------------------------

	Phase               SI   log IAP   log K(363 K,   1 atm)

	H2(g)           -11.51    -14.63   -3.12  H2
	H2O(g)           -0.16     -0.00    0.16  H2O
	O2(g)           -42.79    -45.91   -3.11  O2


Reaction step 11.

Using solution 1.	
Using temperature 1.	

-----------------------------Solution composition------------------------------

	Elements           Molality       Moles

	Pure water     

----------------------------Description of solution----------------------------

                                       pH  =   6.120      Charge balance
                                       pe  =  -0.514      Adjusted to redox equilibrium
       Specific Conductance (uS/cm, 100 oC) = 1
                          Density (g/cm3)  =   0.95835
                        Activity of water  =   1.000
                           Ionic strength  =  7.596e-007
                       Mass of water (kg)  =  1.000e+000
                 Total alkalinity (eq/kg)  =  2.208e-010
                    Total carbon (mol/kg)  =  0.000e+000
                       Total CO2 (mol/kg)  =  0.000e+000
                      Temperature (deg C)  = 100.00
                  Electrical balance (eq)  = -2.208e-010
 Percent error, 100*(Cat-|An|)/(Cat+|An|)  =  -0.01
                               Iterations  =  11
                                  Total H  = 1.110124e+002
                                  Total O  = 5.550622e+001

----------------------------Distribution of species----------------------------

                                               Log       Log       Log    mole V
   Species          Molality    Activity  Molality  Activity     Gamma   cm3/mol

   OH-            7.597e-007  7.588e-007    -6.119    -6.120    -0.001     -6.23
   H+             7.595e-007  7.586e-007    -6.119    -6.120    -0.001      0.00
   H2O            5.551e+001  1.000e+000     1.744    -0.000     0.000     18.80
H(0)         4.782e-015
   H2             2.391e-015  2.391e-015   -14.621   -14.621     0.000     28.57
O(0)         0.000e+000
   O2             0.000e+000  0.000e+000   -43.798   -43.798     0.000     33.90

------------------------------Saturation indices-------------------------------

	Phase               SI   log IAP   log K(373 K,   1 atm)

	H2(g)           -11.52    -14.62   -3.10  H2
	H2O(g)           -0.00     -0.00    0.00  H2O
	O2(g)           -40.68    -43.80   -3.11  O2


Reaction step 12.

Using solution 1.	
Using temperature 1.	

-----------------------------Solution composition------------------------------

	Elements           Molality       Moles

	Pure water     

----------------------------Description of solution----------------------------

                                       pH  =   6.045      Charge balance
                                       pe  =  -0.457      Adjusted to redox equilibrium
       Specific Conductance (uS/cm, 110 oC) = 1
                          Density (g/cm3)  =   0.95095
                        Activity of water  =   1.000
                           Ionic strength  =  9.035e-007
                       Mass of water (kg)  =  1.000e+000
                 Total alkalinity (eq/kg)  =  2.208e-010
                    Total carbon (mol/kg)  =  0.000e+000
                       Total CO2 (mol/kg)  =  0.000e+000
                      Temperature (deg C)  = 110.00
                           Pressure (atm)  =  1.41
                  Electrical balance (eq)  = -2.208e-010
 Percent error, 100*(Cat-|An|)/(Cat+|An|)  =  -0.01
                               Iterations  =  11
                                  Total H  = 1.110124e+002
                                  Total O  = 5.550622e+001

----------------------------Distribution of species----------------------------

                                               Log       Log       Log    mole V
   Species          Molality    Activity  Molality  Activity     Gamma   cm3/mol

   OH-            9.036e-007  9.024e-007    -6.044    -6.045    -0.001     -7.23
   H+             9.034e-007  9.022e-007    -6.044    -6.045    -0.001      0.00
   H2O            5.551e+001  1.000e+000     1.744    -0.000     0.000     18.95
H(0)         4.891e-015
   H2             2.445e-015  2.445e-015   -14.612   -14.612     0.000     28.57
O(0)         0.000e+000
   O2             0.000e+000  0.000e+000   -41.811   -41.811     0.000     34.26

------------------------------Saturation indices-------------------------------

	Phase               SI   log IAP   log K(383 K,   1 atm)

	H2(g)           -11.53    -14.61   -3.08  H2
	H2O(g)            0.14     -0.00   -0.14  H2O
	O2(g)           -38.70    -41.81   -3.11  O2


Reaction step 13.

Using solution 1.	
Using temperature 1.	

-----------------------------Solution composition------------------------------

	Elements           Molality       Moles

	Pure water     

----------------------------Description of solution----------------------------

                                       pH  =   5.977      Charge balance
                                       pe  =  -0.405      Adjusted to redox equilibrium
       Specific Conductance (uS/cm, 120 oC) = 2
                          Density (g/cm3)  =   0.94311
                        Activity of water  =   1.000
                           Ionic strength  =  1.057e-006
                       Mass of water (kg)  =  1.000e+000
                 Total alkalinity (eq/kg)  =  2.208e-010
                    Total carbon (mol/kg)  =  0.000e+000
                       Total CO2 (mol/kg)  =  0.000e+000
                      Temperature (deg C)  = 120.00
                           Pressure (atm)  =  1.96
                  Electrical balance (eq)  = -2.208e-010
 Percent error, 100*(Cat-|An|)/(Cat+|An|)  =  -0.01
                               Iterations  =  11
                                  Total H  = 1.110124e+002
                                  Total O  = 5.550622e+001

----------------------------Distribution of species----------------------------

                                               Log       Log       Log    mole V
   Species          Molality    Activity  Molality  Activity     Gamma   cm3/mol

   OH-            1.057e-006  1.055e-006    -5.976    -5.977    -0.001     -8.43
   H+             1.057e-006  1.055e-006    -5.976    -5.977    -0.001      0.00
   H2O            5.551e+001  1.000e+000     1.744    -0.000     0.000     19.10
H(0)         4.970e-015
   H2             2.485e-015  2.485e-015   -14.605   -14.605     0.000     28.56
O(0)         2.400e-040
   O2             1.200e-040  1.200e-040   -39.921   -39.921     0.000     34.64

------------------------------Saturation indices-------------------------------

	Phase               SI   log IAP   log K(393 K,   2 atm)

	H2(g)           -11.54    -14.60   -3.06  H2
	H2O(g)            0.29     -0.00   -0.29  H2O
	O2(g)           -36.82    -39.92   -3.10  O2


Reaction step 14.

Using solution 1.	
Using temperature 1.	

-----------------------------Solution composition------------------------------

	Elements           Molality       Moles

	Pure water     

----------------------------Description of solution----------------------------

                                       pH  =   5.915      Charge balance
                                       pe  =  -0.345      Adjusted to redox equilibrium
       Specific Conductance (uS/cm, 130 oC) = 2
                          Density (g/cm3)  =   0.93483
                        Activity of water  =   1.000
                           Ionic strength  =  1.217e-006
                       Mass of water (kg)  =  1.000e+000
                 Total alkalinity (eq/kg)  =  2.208e-010
                    Total carbon (mol/kg)  =  0.000e+000
                       Total CO2 (mol/kg)  =  0.000e+000
                      Temperature (deg C)  = 130.00
                           Pressure (atm)  =  2.67
                  Electrical balance (eq)  = -2.208e-010
 Percent error, 100*(Cat-|An|)/(Cat+|An|)  =  -0.01
                               Iterations  =  11
                                  Total H  = 1.110124e+002
                                  Total O  = 5.550622e+001

----------------------------Distribution of species----------------------------

                                               Log       Log       Log    mole V
   Species          Molality    Activity  Molality  Activity     Gamma   cm3/mol

   OH-            1.218e-006  1.216e-006    -5.915    -5.915    -0.001     -9.86
   H+             1.217e-006  1.215e-006    -5.915    -5.915    -0.001      0.00
   H2O            5.551e+001  1.000e+000     1.744    -0.000     0.000     19.27
H(0)         4.726e-015
   H2             2.363e-015  2.363e-015   -14.627   -14.627     0.000     28.56
O(0)         1.712e-038
   O2             8.559e-039  8.559e-039   -38.068   -38.068     0.000     35.03

------------------------------Saturation indices-------------------------------

	Phase               SI   log IAP   log K(403 K,   3 atm)

	H2(g)           -11.59    -14.63   -3.04  H2
	H2O(g)            0.42     -0.00   -0.42  H2O
	O2(g)           -34.98    -38.07   -3.08  O2


Reaction step 15.

Using solution 1.	
Using temperature 1.	

-----------------------------Solution composition------------------------------

	Elements           Molality       Moles

	Pure water     

----------------------------Description of solution----------------------------

                                       pH  =   5.860      Charge balance
                                       pe  =  -0.302      Adjusted to redox equilibrium
       Specific Conductance (uS/cm, 140 oC) = 3
                          Density (g/cm3)  =   0.92613
                        Activity of water  =   1.000
                           Ionic strength  =  1.382e-006
                       Mass of water (kg)  =  1.000e+000
                 Total alkalinity (eq/kg)  =  2.208e-010
                    Total carbon (mol/kg)  =  0.000e+000
                       Total CO2 (mol/kg)  =  0.000e+000
                      Temperature (deg C)  = 140.00
                           Pressure (atm)  =  3.57
                  Electrical balance (eq)  = -2.208e-010
 Percent error, 100*(Cat-|An|)/(Cat+|An|)  =  -0.01
                               Iterations  =  11
                                  Total H  = 1.110124e+002
                                  Total O  = 5.550622e+001

----------------------------Distribution of species----------------------------

                                               Log       Log       Log    mole V
   Species          Molality    Activity  Molality  Activity     Gamma   cm3/mol

   OH-            1.382e-006  1.380e-006    -5.859    -5.860    -0.001    -11.54
   H+             1.382e-006  1.380e-006    -5.859    -5.860    -0.001      0.00
   H2O            5.551e+001  1.000e+000     1.744    -0.000     0.000     19.45
H(0)         4.726e-015
   H2             2.363e-015  2.363e-015   -14.627   -14.627     0.000     28.56
O(0)         9.021e-037
   O2             4.510e-037  4.510e-037   -36.346   -36.346     0.000     35.45

------------------------------Saturation indices-------------------------------

	Phase               SI   log IAP   log K(413 K,   4 atm)

	H2(g)           -11.62    -14.63   -3.01  H2
	H2O(g)            0.54     -0.00   -0.54  H2O
	O2(g)           -33.28    -36.35   -3.07  O2


Reaction step 16.

Using solution 1.	
Using temperature 1.	

-----------------------------Solution composition------------------------------

	Elements           Molality       Moles

	Pure water     

----------------------------Description of solution----------------------------

                                       pH  =   5.811      Charge balance
                                       pe  =   4.320      Adjusted to redox equilibrium
       Specific Conductance (uS/cm, 150 oC) = 4
                          Density (g/cm3)  =   0.91701
                        Activity of water  =   1.000
                           Ionic strength  =  1.548e-006
                       Mass of water (kg)  =  1.000e+000
                 Total alkalinity (eq/kg)  =  2.208e-010
                    Total carbon (mol/kg)  =  0.000e+000
                       Total CO2 (mol/kg)  =  0.000e+000
                      Temperature (deg C)  = 150.00
                           Pressure (atm)  =  4.70
                  Electrical balance (eq)  = -2.208e-010
 Percent error, 100*(Cat-|An|)/(Cat+|An|)  =  -0.01
                               Iterations  =   7
                                  Total H  = 1.110124e+002
                                  Total O  = 5.550622e+001

----------------------------Distribution of species----------------------------

                                               Log       Log       Log    mole V
   Species          Molality    Activity  Molality  Activity     Gamma   cm3/mol

   OH-            1.548e-006  1.545e-006    -5.810    -5.811    -0.001    -13.52
   H+             1.548e-006  1.545e-006    -5.810    -5.811    -0.001      0.00
   H2O            5.551e+001  1.000e+000     1.744    -0.000     0.000     19.65
H(0)         3.218e-024
   H2             1.609e-024  1.609e-024   -23.793   -23.793     0.000     28.56
O(0)         8.496e-017
   O2             4.248e-017  4.248e-017   -16.372   -16.372     0.000     35.91

------------------------------Saturation indices-------------------------------

	Phase               SI   log IAP   log K(423 K,   5 atm)

	H2(g)           -20.81    -23.79   -2.98  H2
	H2O(g)            0.66     -0.00   -0.66  H2O
	O2(g)           -13.33    -16.37   -3.04  O2


Reaction step 17.

Using solution 1.	
Using temperature 1.	

-----------------------------Solution composition------------------------------

	Elements           Molality       Moles

	Pure water     

----------------------------Description of solution----------------------------

                                       pH  =   5.767      Charge balance
                                       pe  =   4.619      Adjusted to redox equilibrium
       Specific Conductance (uS/cm, 160 oC) = 4
                          Density (g/cm3)  =   0.90745
                        Activity of water  =   1.000
                           Ionic strength  =  1.712e-006
                       Mass of water (kg)  =  1.000e+000
                 Total alkalinity (eq/kg)  =  2.208e-010
                    Total carbon (mol/kg)  =  0.000e+000
                       Total CO2 (mol/kg)  =  0.000e+000
                      Temperature (deg C)  = 160.00
                           Pressure (atm)  =  6.10
                  Electrical balance (eq)  = -2.208e-010
 Percent error, 100*(Cat-|An|)/(Cat+|An|)  =  -0.01
                               Iterations  =   7
                                  Total H  = 1.110124e+002
                                  Total O  = 5.550622e+001

----------------------------Distribution of species----------------------------

                                               Log       Log       Log    mole V
   Species          Molality    Activity  Molality  Activity     Gamma   cm3/mol

   OH-            1.712e-006  1.709e-006    -5.766    -5.767    -0.001    -15.86
   H+             1.712e-006  1.708e-006    -5.766    -5.767    -0.001      0.00
   H2O            5.551e+001  1.000e+000     1.744    -0.000     0.000     19.85
H(0)         9.428e-025
   H2             4.714e-025  4.714e-025   -24.327   -24.327     0.000     28.56
O(0)         3.630e-014
   O2             1.815e-014  1.815e-014   -13.741   -13.741     0.000     36.42

------------------------------Saturation indices-------------------------------

	Phase               SI   log IAP   log K(433 K,   6 atm)

	H2(g)           -21.38    -24.33   -2.95  H2
	H2O(g)            0.77     -0.00   -0.77  H2O
	O2(g)           -10.73    -13.74   -3.01  O2


Reaction step 18.

Using solution 1.	
Using temperature 1.	

-----------------------------Solution composition------------------------------

	Elements           Molality       Moles

	Pure water     

----------------------------Description of solution----------------------------

                                       pH  =   5.729      Charge balance
                                       pe  =   4.661      Adjusted to redox equilibrium
       Specific Conductance (uS/cm, 170 oC) = 5
                          Density (g/cm3)  =   0.89746
                        Activity of water  =   1.000
                           Ionic strength  =  1.871e-006
                       Mass of water (kg)  =  1.000e+000
                 Total alkalinity (eq/kg)  =  2.208e-010
                    Total carbon (mol/kg)  =  0.000e+000
                       Total CO2 (mol/kg)  =  0.000e+000
                      Temperature (deg C)  = 170.00
                           Pressure (atm)  =  7.83
                  Electrical balance (eq)  = -2.208e-010
 Percent error, 100*(Cat-|An|)/(Cat+|An|)  =  -0.01
                               Iterations  =   7
                                  Total H  = 1.110124e+002
                                  Total O  = 5.550622e+001

----------------------------Distribution of species----------------------------

                                               Log       Log       Log    mole V
   Species          Molality    Activity  Molality  Activity     Gamma   cm3/mol

   OH-            1.871e-006  1.867e-006    -5.728    -5.729    -0.001    -18.61
   H+             1.871e-006  1.866e-006    -5.728    -5.729    -0.001      0.00
   H2O            5.551e+001  1.000e+000     1.744    -0.000     0.000     20.07
H(0)         8.832e-025
   H2             4.416e-025  4.416e-025   -24.355   -24.355     0.000     28.55
O(0)         1.289e-012
   O2             6.443e-013  6.443e-013   -12.191   -12.191     0.000     36.99

------------------------------Saturation indices-------------------------------

	Phase               SI   log IAP   log K(443 K,   8 atm)

	H2(g)           -21.44    -24.35   -2.92  H2
	H2O(g)            0.88     -0.00   -0.88  H2O
	O2(g)            -9.21    -12.19   -2.98  O2


Reaction step 19.

Using solution 1.	
Using temperature 1.	

-----------------------------Solution composition------------------------------

	Elements           Molality       Moles

	Pure water     

----------------------------Description of solution----------------------------

                                       pH  =   5.696      Charge balance
                                       pe  =   4.695      Adjusted to redox equilibrium
       Specific Conductance (uS/cm, 180 oC) = 6
                          Density (g/cm3)  =   0.88701
                        Activity of water  =   1.000
                           Ionic strength  =  2.021e-006
                       Mass of water (kg)  =  1.000e+000
                 Total alkalinity (eq/kg)  =  2.208e-010
                    Total carbon (mol/kg)  =  0.000e+000
                       Total CO2 (mol/kg)  =  0.000e+000
                      Temperature (deg C)  = 180.00
                           Pressure (atm)  =  9.91
                  Electrical balance (eq)  = -2.208e-010
 Percent error, 100*(Cat-|An|)/(Cat+|An|)  =  -0.01
                               Iterations  =   7
                                  Total H  = 1.110124e+002
                                  Total O  = 5.550622e+001

----------------------------Distribution of species----------------------------

                                               Log       Log       Log    mole V
   Species          Molality    Activity  Molality  Activity     Gamma   cm3/mol

   OH-            2.021e-006  2.016e-006    -5.694    -5.696    -0.001    -21.87
   H+             2.021e-006  2.016e-006    -5.694    -5.696    -0.001      0.00
   H2O            5.551e+001  1.000e+000     1.744    -0.000     0.000     20.31
H(0)         8.434e-025
   H2             4.217e-025  4.217e-025   -24.375   -24.375     0.000     28.55
O(0)         3.780e-011
   O2             1.890e-011  1.890e-011   -10.724   -10.724     0.000     37.64

------------------------------Saturation indices-------------------------------

	Phase               SI   log IAP   log K(453 K,  10 atm)

	H2(g)           -21.49    -24.37   -2.88  H2
	H2O(g)            0.97     -0.00   -0.97  H2O
	O2(g)            -7.77    -10.72   -2.95  O2


Reaction step 20.

Using solution 1.	
Using temperature 1.	

-----------------------------Solution composition------------------------------

	Elements           Molality       Moles

	Pure water     

----------------------------Description of solution----------------------------

                                       pH  =   5.667      Charge balance
                                       pe  =   4.724      Adjusted to redox equilibrium
       Specific Conductance (uS/cm, 190 oC) = 7
                          Density (g/cm3)  =   0.87609
                        Activity of water  =   1.000
                           Ionic strength  =  2.159e-006
                       Mass of water (kg)  =  1.000e+000
                 Total alkalinity (eq/kg)  =  2.208e-010
                    Total carbon (mol/kg)  =  0.000e+000
                       Total CO2 (mol/kg)  =  0.000e+000
                      Temperature (deg C)  = 190.00
                           Pressure (atm)  = 12.41
                  Electrical balance (eq)  = -2.208e-010
 Percent error, 100*(Cat-|An|)/(Cat+|An|)  =  -0.01
                               Iterations  =   7
                                  Total H  = 1.110124e+002
                                  Total O  = 5.550622e+001

----------------------------Distribution of species----------------------------

                                               Log       Log       Log    mole V
   Species          Molality    Activity  Molality  Activity     Gamma   cm3/mol

   OH-            2.159e-006  2.154e-006    -5.666    -5.667    -0.001    -25.73
   H+             2.159e-006  2.153e-006    -5.666    -5.667    -0.001      0.00
   H2O            5.551e+001  1.000e+000     1.744    -0.000     0.000     20.56
H(0)         8.072e-025
   H2             4.036e-025  4.036e-025   -24.394   -24.394     0.000     28.55
O(0)         9.574e-010
   O2             4.787e-010  4.787e-010    -9.320    -9.320     0.000     38.39

------------------------------Saturation indices-------------------------------

	Phase               SI   log IAP   log K(463 K,  12 atm)

	H2(g)           -21.55    -24.39   -2.85  H2
	H2O(g)            1.07     -0.00   -1.07  H2O
	O2(g)            -6.41     -9.32   -2.91  O2


Reaction step 21.

Using solution 1.	
Using temperature 1.	

-----------------------------Solution composition------------------------------

	Elements           Molality       Moles

	Pure water     

----------------------------Description of solution----------------------------

                                       pH  =   5.643      Charge balance
                                       pe  =   4.531      Adjusted to redox equilibrium
       Specific Conductance (uS/cm, 200 oC) = 8
                          Density (g/cm3)  =   0.86467
                        Activity of water  =   1.000
                           Ionic strength  =  2.283e-006
                       Mass of water (kg)  =  1.000e+000
                 Total alkalinity (eq/kg)  =  2.208e-010
                    Total carbon (mol/kg)  =  0.000e+000
                       Total CO2 (mol/kg)  =  0.000e+000
                      Temperature (deg C)  = 200.00
                           Pressure (atm)  = 15.38
                  Electrical balance (eq)  = -2.208e-010
 Percent error, 100*(Cat-|An|)/(Cat+|An|)  =  -0.00
                               Iterations  =   9
                                  Total H  = 1.110124e+002
                                  Total O  = 5.550622e+001

----------------------------Distribution of species----------------------------

                                               Log       Log       Log    mole V
   Species          Molality    Activity  Molality  Activity     Gamma   cm3/mol

   OH-            2.283e-006  2.277e-006    -5.641    -5.643    -0.001    -30.33
   H+             2.283e-006  2.277e-006    -5.641    -5.643    -0.001      0.00
   H2O            5.551e+001  1.000e+000     1.744    -0.000     0.000     20.84
H(0)         2.103e-024
   H2             1.052e-024  1.052e-024   -23.978   -23.978     0.000     28.55
O(0)         2.863e-009
   O2             1.431e-009  1.431e-009    -8.844    -8.844     0.000     39.26

------------------------------Saturation indices-------------------------------

	Phase               SI   log IAP   log K(473 K,  15 atm)

	H2(g)           -21.17    -23.98   -2.81  H2
	H2O(g)            1.16     -0.00   -1.16  H2O
	O2(g)            -5.97     -8.84   -2.88  O2


Reaction step 22.

Using solution 1.	
Using temperature 1.	

-----------------------------Solution composition------------------------------

	Elements           Molality       Moles

	Pure water     

----------------------------Description of solution----------------------------

                                       pH  =   5.623      Charge balance
                                       pe  =   4.225      Adjusted to redox equilibrium
       Specific Conductance (uS/cm, 210 oC) = 9
                          Density (g/cm3)  =   0.85273
                        Activity of water  =   1.000
                           Ionic strength  =  2.390e-006
                       Mass of water (kg)  =  1.000e+000
                 Total alkalinity (eq/kg)  =  2.208e-010
                    Total carbon (mol/kg)  =  0.000e+000
                       Total CO2 (mol/kg)  =  0.000e+000
                      Temperature (deg C)  = 210.00
                           Pressure (atm)  = 18.87
                  Electrical balance (eq)  = -2.208e-010
 Percent error, 100*(Cat-|An|)/(Cat+|An|)  =  -0.00
                               Iterations  =  12
                                  Total H  = 1.110124e+002
                                  Total O  = 5.550622e+001

----------------------------Distribution of species----------------------------

                                               Log       Log       Log    mole V
   Species          Molality    Activity  Molality  Activity     Gamma   cm3/mol

   OH-            2.391e-006  2.383e-006    -5.621    -5.623    -0.001    -35.85
   H+             2.390e-006  2.383e-006    -5.622    -5.623    -0.001      0.00
   H2O            5.551e+001  1.000e+000     1.744    -0.000     0.000     21.13
H(0)         9.047e-024
   H2             4.523e-024  4.523e-024   -23.345   -23.345     0.000     28.55
O(0)         2.770e-009
   O2             1.385e-009  1.385e-009    -8.859    -8.859     0.000     40.27

------------------------------Saturation indices-------------------------------

	Phase               SI   log IAP   log K(483 K,  19 atm)

	H2(g)           -20.57    -23.34   -2.77  H2
	H2O(g)            1.24     -0.00   -1.24  H2O
	O2(g)            -6.02     -8.86   -2.83  O2


Reaction step 23.

Using solution 1.	
Using temperature 1.	

-----------------------------Solution composition------------------------------

	Elements           Molality       Moles

	Pure water     

----------------------------Description of solution----------------------------

                                       pH  =   5.607      Charge balance
                                       pe  =   3.915      Adjusted to redox equilibrium
       Specific Conductance (uS/cm, 220 oC) = 10
                          Density (g/cm3)  =   0.84023
                        Activity of water  =   1.000
                           Ionic strength  =  2.480e-006
                       Mass of water (kg)  =  1.000e+000
                 Total alkalinity (eq/kg)  =  2.208e-010
                    Total carbon (mol/kg)  =  0.000e+000
                       Total CO2 (mol/kg)  =  0.000e+000
                      Temperature (deg C)  = 220.00
                           Pressure (atm)  = 22.94
                  Electrical balance (eq)  = -2.208e-010
 Percent error, 100*(Cat-|An|)/(Cat+|An|)  =  -0.00
                               Iterations  =  15
                                  Total H  = 1.110124e+002
                                  Total O  = 5.550622e+001

----------------------------Distribution of species----------------------------

                                               Log       Log       Log    mole V
   Species          Molality    Activity  Molality  Activity     Gamma   cm3/mol

   OH-            2.480e-006  2.472e-006    -5.606    -5.607    -0.001    -42.50
   H+             2.479e-006  2.472e-006    -5.606    -5.607    -0.001      0.00
   H2O            5.551e+001  1.000e+000     1.744    -0.000     0.000     21.44
H(0)         3.896e-023
   H2             1.948e-023  1.948e-023   -22.710   -22.710     0.000     28.54
O(0)         2.376e-009
   O2             1.188e-009  1.188e-009    -8.925    -8.925     0.000     41.49

------------------------------Saturation indices-------------------------------

	Phase               SI   log IAP   log K(493 K,  23 atm)

	H2(g)           -19.98    -22.71   -2.73  H2
	H2O(g)            1.32     -0.00   -1.32  H2O
	O2(g)            -6.13     -8.93   -2.79  O2


Reaction step 24.

Using solution 1.	
Using temperature 1.	

-----------------------------Solution composition------------------------------

	Elements           Molality       Moles

	Pure water     

----------------------------Description of solution----------------------------

                                       pH  =   5.595      Charge balance
                                       pe  =   3.710      Adjusted to redox equilibrium
       Specific Conductance (uS/cm, 230 oC) = 11
                          Density (g/cm3)  =   0.82713
                        Activity of water  =   1.000
                           Ionic strength  =  2.549e-006
                       Mass of water (kg)  =  1.000e+000
                 Total alkalinity (eq/kg)  =  2.208e-010
                    Total carbon (mol/kg)  =  0.000e+000
                       Total CO2 (mol/kg)  =  0.000e+000
                      Temperature (deg C)  = 230.00
                           Pressure (atm)  = 27.65
                  Electrical balance (eq)  = -2.208e-010
 Percent error, 100*(Cat-|An|)/(Cat+|An|)  =  -0.00
                               Iterations  =  17
                                  Total H  = 1.110124e+002
                                  Total O  = 5.550622e+001

----------------------------Distribution of species----------------------------

                                               Log       Log       Log    mole V
   Species          Molality    Activity  Molality  Activity     Gamma   cm3/mol

   OH-            2.550e-006  2.541e-006    -5.594    -5.595    -0.001    -50.60
   H+             2.549e-006  2.541e-006    -5.594    -5.595    -0.001      0.00
   H2O            5.551e+001  1.000e+000     1.744    -0.000     0.000     21.78
H(0)         1.019e-022
   H2             5.095e-023  5.095e-023   -22.293   -22.293     0.000     28.54
O(0)         4.946e-009
   O2             2.473e-009  2.473e-009    -8.607    -8.607     0.000     42.94

------------------------------Saturation indices-------------------------------

	Phase               SI   log IAP   log K(503 K,  28 atm)

	H2(g)           -19.60    -22.29   -2.69  H2
	H2O(g)            1.39     -0.00   -1.39  H2O
	O2(g)            -5.86     -8.61   -2.75  O2


Reaction step 25.

Using solution 1.	
Using temperature 1.	

-----------------------------Solution composition------------------------------

	Elements           Molality       Moles

	Pure water     

----------------------------Description of solution----------------------------

                                       pH  =   5.587      Charge balance
                                       pe  =   3.393      Adjusted to redox equilibrium
       Specific Conductance (uS/cm, 240 oC) = 12
                          Density (g/cm3)  =   0.81337
                        Activity of water  =   1.000
                           Ionic strength  =  2.600e-006
                       Mass of water (kg)  =  1.000e+000
                 Total alkalinity (eq/kg)  =  2.208e-010
                    Total carbon (mol/kg)  =  0.000e+000
                       Total CO2 (mol/kg)  =  0.000e+000
                      Temperature (deg C)  = 240.00
                           Pressure (atm)  = 33.06
                  Electrical balance (eq)  = -2.208e-010
 Percent error, 100*(Cat-|An|)/(Cat+|An|)  =  -0.00
                               Iterations  =  20
                                  Total H  = 1.110124e+002
                                  Total O  = 5.550622e+001

----------------------------Distribution of species----------------------------

                                               Log       Log       Log    mole V
   Species          Molality    Activity  Molality  Activity     Gamma   cm3/mol

   OH-            2.600e-006  2.591e-006    -5.585    -5.586    -0.002    -60.54
   H+             2.600e-006  2.591e-006    -5.585    -5.587    -0.002      0.00
   H2O            5.551e+001  1.000e+000     1.744    -0.000     0.000     22.15
H(0)         4.399e-022
   H2             2.199e-022  2.199e-022   -21.658   -21.658     0.000     28.54
O(0)         3.403e-009
   O2             1.702e-009  1.702e-009    -8.769    -8.769     0.000     44.71

------------------------------Saturation indices-------------------------------

	Phase               SI   log IAP   log K(513 K,  33 atm)

	H2(g)           -19.01    -21.66   -2.65  H2
	H2O(g)            1.47     -0.00   -1.47  H2O
	O2(g)            -6.07     -8.77   -2.70  O2


Reaction step 26.

Using solution 1.	
Using temperature 1.	

-----------------------------Solution composition------------------------------

	Elements           Molality       Moles

	Pure water     

----------------------------Description of solution----------------------------

                                       pH  =   5.581      Charge balance
                                       pe  =   3.072      Adjusted to redox equilibrium
       Specific Conductance (uS/cm, 250 oC) = 12
                          Density (g/cm3)  =   0.79889
                        Activity of water  =   1.000
                           Ionic strength  =  2.633e-006
                       Mass of water (kg)  =  1.000e+000
                 Total alkalinity (eq/kg)  =  2.208e-010
                    Total carbon (mol/kg)  =  0.000e+000
                       Total CO2 (mol/kg)  =  0.000e+000
                      Temperature (deg C)  = 250.00
                           Pressure (atm)  = 39.24
                  Electrical balance (eq)  = -2.208e-010
 Percent error, 100*(Cat-|An|)/(Cat+|An|)  =  -0.00
                               Iterations  =  23
                                  Total H  = 1.110124e+002
                                  Total O  = 5.550622e+001

----------------------------Distribution of species----------------------------

                                               Log       Log       Log    mole V
   Species          Molality    Activity  Molality  Activity     Gamma   cm3/mol

   OH-            2.633e-006  2.624e-006    -5.579    -5.581    -0.002    -72.87
   H+             2.633e-006  2.624e-006    -5.580    -5.581    -0.002      0.00
   H2O            5.551e+001  1.000e+000     1.744    -0.000     0.000     22.55
H(0)         1.900e-021
   H2             9.502e-022  9.502e-022   -21.022   -21.022     0.000     28.53
O(0)         2.117e-009
   O2             1.059e-009  1.059e-009    -8.975    -8.975     0.000     46.90

------------------------------Saturation indices-------------------------------

	Phase               SI   log IAP   log K(523 K,  39 atm)

	H2(g)           -18.41    -21.02   -2.61  H2
	H2O(g)            1.53     -0.00   -1.53  H2O
	O2(g)            -6.32     -8.98   -2.65  O2


Reaction step 27.

Using solution 1.	
Using temperature 1.	

-----------------------------Solution composition------------------------------

	Elements           Molality       Moles

	Pure water     

----------------------------Description of solution----------------------------

                                       pH  =   5.578      Charge balance
                                       pe  =   2.858      Adjusted to redox equilibrium
       Specific Conductance (uS/cm, 260 oC) = 13
                          Density (g/cm3)  =   0.78361
                        Activity of water  =   1.000
                           Ionic strength  =  2.651e-006
                       Mass of water (kg)  =  1.000e+000
                 Total alkalinity (eq/kg)  =  2.208e-010
                    Total carbon (mol/kg)  =  0.000e+000
                       Total CO2 (mol/kg)  =  0.000e+000
                      Temperature (deg C)  = 260.00
                           Pressure (atm)  = 46.24
                  Electrical balance (eq)  = -2.208e-010
 Percent error, 100*(Cat-|An|)/(Cat+|An|)  =  -0.00
                               Iterations  =  25
                                  Total H  = 1.110124e+002
                                  Total O  = 5.550622e+001

----------------------------Distribution of species----------------------------

                                               Log       Log       Log    mole V
   Species          Molality    Activity  Molality  Activity     Gamma   cm3/mol

   OH-            2.651e-006  2.641e-006    -5.577    -5.578    -0.002    -88.37
   H+             2.651e-006  2.641e-006    -5.577    -5.578    -0.002      0.00
   H2O            5.551e+001  1.000e+000     1.744    -0.000     0.000     22.99
H(0)         4.984e-021
   H2             2.492e-021  2.492e-021   -20.603   -20.603     0.000     28.53
O(0)         3.253e-009
   O2             1.627e-009  1.627e-009    -8.789    -8.789     0.000     49.63

------------------------------Saturation indices-------------------------------

	Phase               SI   log IAP   log K(533 K,  46 atm)

	H2(g)           -18.04    -20.60   -2.56  H2
	H2O(g)            1.60     -0.00   -1.60  H2O
	O2(g)            -6.18     -8.79   -2.61  O2


Reaction step 28.

Using solution 1.	
Using temperature 1.	

-----------------------------Solution composition------------------------------

	Elements           Molality       Moles

	Pure water     

----------------------------Description of solution----------------------------

                                       pH  =   5.577      Charge balance
                                       pe  =   2.642      Adjusted to redox equilibrium
       Specific Conductance (uS/cm, 270 oC) = 14
                          Density (g/cm3)  =   0.76743
                        Activity of water  =   1.000
                           Ionic strength  =  2.658e-006
                       Mass of water (kg)  =  1.000e+000
                 Total alkalinity (eq/kg)  =  2.208e-010
                    Total carbon (mol/kg)  =  0.000e+000
                       Total CO2 (mol/kg)  =  0.000e+000
                      Temperature (deg C)  = 270.00
                           Pressure (atm)  = 54.14
                  Electrical balance (eq)  = -2.208e-010
 Percent error, 100*(Cat-|An|)/(Cat+|An|)  =  -0.00
                               Iterations  =  27
                                  Total H  = 1.110124e+002
                                  Total O  = 5.550622e+001

----------------------------Distribution of species----------------------------

                                               Log       Log       Log    mole V
   Species          Molality    Activity  Molality  Activity     Gamma   cm3/mol

   OH-            2.658e-006  2.647e-006    -5.575    -5.577    -0.002   -108.15
   H+             2.658e-006  2.647e-006    -5.575    -5.577    -0.002      0.00
   H2O            5.551e+001  1.000e+000     1.744    -0.000     0.000     23.48
H(0)         1.308e-020
   H2             6.540e-021  6.540e-021   -20.184   -20.184     0.000     28.52
O(0)         4.565e-009
   O2             2.282e-009  2.282e-009    -8.642    -8.642     0.000     53.10

------------------------------Saturation indices-------------------------------

	Phase               SI   log IAP   log K(543 K,  54 atm)

	H2(g)           -17.66    -20.18   -2.52  H2
	H2O(g)            1.66     -0.00   -1.66  H2O
	O2(g)            -6.09     -8.64   -2.56  O2


Reaction step 29.

Using solution 1.	
Using temperature 1.	

-----------------------------Solution composition------------------------------

	Elements           Molality       Moles

	Pure water     

----------------------------Description of solution----------------------------

                                       pH  =   5.577      Charge balance
                                       pe  =   2.317      Adjusted to redox equilibrium
       Specific Conductance (uS/cm, 280 oC) = 14
                          Density (g/cm3)  =   0.75022
                        Activity of water  =   1.000
                           Ionic strength  =  2.661e-006
                       Mass of water (kg)  =  1.000e+000
                 Total alkalinity (eq/kg)  =  2.208e-010
                    Total carbon (mol/kg)  =  0.000e+000
                       Total CO2 (mol/kg)  =  0.000e+000
                      Temperature (deg C)  = 280.00
                           Pressure (atm)  = 62.99
                  Electrical balance (eq)  = -2.208e-010
 Percent error, 100*(Cat-|An|)/(Cat+|An|)  =  -0.00
                               Iterations  =  30
                                  Total H  = 1.110124e+002
                                  Total O  = 5.550622e+001

----------------------------Distribution of species----------------------------

                                               Log       Log       Log    mole V
   Species          Molality    Activity  Molality  Activity     Gamma   cm3/mol

   OH-            2.661e-006  2.650e-006    -5.575    -5.577    -0.002   -133.83
   H+             2.661e-006  2.650e-006    -5.575    -5.577    -0.002      0.00
   H2O            5.551e+001  1.000e+000     1.744    -0.000     0.000     24.01
H(0)         5.664e-020
   H2             2.832e-020  2.832e-020   -19.548   -19.548     0.000     28.52
O(0)         2.160e-009
   O2             1.080e-009  1.080e-009    -8.967    -8.967     0.000     57.59

------------------------------Saturation indices-------------------------------

	Phase               SI   log IAP   log K(553 K,  63 atm)

	H2(g)           -17.07    -19.55   -2.48  H2
	H2O(g)            1.72     -0.00   -1.72  H2O
	O2(g)            -6.46     -8.97   -2.51  O2


Reaction step 30.

Using solution 1.	
Using temperature 1.	

-----------------------------Solution composition------------------------------

	Elements           Molality       Moles

	Pure water     

----------------------------Description of solution----------------------------

                                       pH  =   5.575      Charge balance
                                       pe  =   2.101      Adjusted to redox equilibrium
       Specific Conductance (uS/cm, 290 oC) = 15
                          Density (g/cm3)  =   0.73180
                        Activity of water  =   1.000
                           Ionic strength  =  2.672e-006
                       Mass of water (kg)  =  1.000e+000
                 Total alkalinity (eq/kg)  =  2.208e-010
                    Total carbon (mol/kg)  =  0.000e+000
                       Total CO2 (mol/kg)  =  0.000e+000
                      Temperature (deg C)  = 290.00
                           Pressure (atm)  = 72.86
                  Electrical balance (eq)  = -2.208e-010
 Percent error, 100*(Cat-|An|)/(Cat+|An|)  =  -0.00
                               Iterations  =  32
                                  Total H  = 1.110124e+002
                                  Total O  = 5.550622e+001

----------------------------Distribution of species----------------------------

                                               Log       Log       Log    mole V
   Species          Molality    Activity  Molality  Activity     Gamma   cm3/mol

   OH-            2.672e-006  2.660e-006    -5.573    -5.575    -0.002   -167.90
   H+             2.672e-006  2.660e-006    -5.573    -5.575    -0.002      0.00
   H2O            5.551e+001  1.000e+000     1.744    -0.000     0.000     24.62
H(0)         1.488e-019
   H2             7.442e-020  7.442e-020   -19.128   -19.128     0.000     28.52
O(0)         2.556e-009
   O2             1.278e-009  1.278e-009    -8.893    -8.893     0.000     63.54

------------------------------Saturation indices-------------------------------

	Phase               SI   log IAP   log K(563 K,  73 atm)

	H2(g)           -16.70    -19.13   -2.43  H2
	H2O(g)            1.77     -0.00   -1.77  H2O
	O2(g)            -6.44     -8.89   -2.45  O2


Reaction step 31.

Using solution 1.	
Using temperature 1.	

-----------------------------Solution composition------------------------------

	Elements           Molality       Moles

	Pure water     

----------------------------Description of solution----------------------------

                                       pH  =   5.569      Charge balance
                                       pe  =   1.890      Adjusted to redox equilibrium
       Specific Conductance (uS/cm, 300 oC) = 16
                          Density (g/cm3)  =   0.71192
                        Activity of water  =   1.000
                           Ionic strength  =  2.708e-006
                       Mass of water (kg)  =  1.000e+000
                 Total alkalinity (eq/kg)  =  2.208e-010
                    Total carbon (mol/kg)  =  0.000e+000
                       Total CO2 (mol/kg)  =  0.000e+000
                      Temperature (deg C)  = 300.00
                           Pressure (atm)  = 83.82
                  Electrical balance (eq)  = -2.208e-010
 Percent error, 100*(Cat-|An|)/(Cat+|An|)  =  -0.00
                               Iterations  =  34
                                  Total H  = 1.110124e+002
                                  Total O  = 5.550622e+001

----------------------------Distribution of species----------------------------

                                               Log       Log       Log    mole V
   Species          Molality    Activity  Molality  Activity     Gamma   cm3/mol

   OH-            2.708e-006  2.695e-006    -5.567    -5.569    -0.002   -214.32
   H+             2.708e-006  2.695e-006    -5.567    -5.569    -0.002      0.00
   H2O            5.551e+001  1.000e+000     1.744    -0.000     0.000     25.31
H(0)         3.914e-019
   H2             1.957e-019  1.957e-019   -18.708   -18.708     0.000     28.51
O(0)         2.787e-009
   O2             1.394e-009  1.394e-009    -8.856    -8.856     0.000     71.64

------------------------------Saturation indices-------------------------------

	Phase               SI   log IAP   log K(573 K,  84 atm)

	H2(g)           -16.32    -18.71   -2.39  H2
	H2O(g)            1.82     -0.00   -1.82  H2O
	O2(g)            -6.45     -8.86   -2.40  O2


------------------
End of simulation.
------------------

------------------------------------
Reading input data for simulation 2.
------------------------------------

	USE solution 1
	 USE reaction_temperature 1
	REACTION_PRESSURE
	 1974 # fails at 350oC
	END
-----------------------------------------
Beginning of batch-reaction calculations.
-----------------------------------------

Reaction step 1.

Using solution 1.	
Using temperature 1.	
Using pressure 1.	

-----------------------------Solution composition------------------------------

	Elements           Molality       Moles

	Pure water     

----------------------------Description of solution----------------------------

                                       pH  =   7.143      Charge balance
                                       pe  =  -1.883      Adjusted to redox equilibrium
       Specific Conductance (uS/cm, 0 oC) = 0
                          Density (g/cm3)  =   1.08242
                        Activity of water  =   1.000
                           Ionic strength  =  7.203e-008
                       Mass of water (kg)  =  1.000e+000
                 Total alkalinity (eq/kg)  =  2.208e-010
                    Total carbon (mol/kg)  =  0.000e+000
                       Total CO2 (mol/kg)  =  0.000e+000
                      Temperature (deg C)  =   0.00
                           Pressure (atm)  = 1974.00
                  Electrical balance (eq)  = -2.208e-010
 Percent error, 100*(Cat-|An|)/(Cat+|An|)  =  -0.15
                               Iterations  =  33
                                  Total H  = 1.110124e+002
                                  Total O  = 5.550622e+001

----------------------------Distribution of species----------------------------

                                               Log       Log       Log    mole V
   Species          Molality    Activity  Molality  Activity     Gamma   cm3/mol

   OH-            7.214e-008  7.212e-008    -7.142    -7.142    -0.000     -1.00
   H+             7.192e-008  7.190e-008    -7.143    -7.143    -0.000      0.00
   H2O            5.551e+001  1.000e+000     1.744    -0.000     0.000     16.64
H(0)         4.726e-015
   H2             2.363e-015  2.363e-015   -14.627   -14.627     0.000     28.10
O(0)         0.000e+000
   O2             0.000e+000  0.000e+000   -73.860   -73.860     0.000     27.48

------------------------------Saturation indices-------------------------------

	Phase               SI   log IAP   log K(273 K, 1974 atm)

	H2(g)           -11.62    -14.63   -3.01  H2
	H2O(g)           -1.57     -0.00    1.57  H2O
	O2(g)           -69.93    -73.86   -3.93  O2


Reaction step 2.

Using solution 1.	
Using temperature 1.	
Using pressure 1.	

-----------------------------Solution composition------------------------------

	Elements           Molality       Moles

	Pure water     

----------------------------Description of solution----------------------------

                                       pH  =   6.960      Charge balance
                                       pe  =  -1.706      Adjusted to redox equilibrium
       Specific Conductance (uS/cm, 10 oC) = 0
                          Density (g/cm3)  =   1.07832
                        Activity of water  =   1.000
                           Ionic strength  =  1.097e-007
                       Mass of water (kg)  =  1.000e+000
                 Total alkalinity (eq/kg)  =  2.208e-010
                    Total carbon (mol/kg)  =  0.000e+000
                       Total CO2 (mol/kg)  =  0.000e+000
                      Temperature (deg C)  =  10.00
                           Pressure (atm)  = 1974.00
                  Electrical balance (eq)  = -2.208e-010
 Percent error, 100*(Cat-|An|)/(Cat+|An|)  =  -0.10
                               Iterations  =  10
                                  Total H  = 1.110124e+002
                                  Total O  = 5.550622e+001

----------------------------Distribution of species----------------------------

                                               Log       Log       Log    mole V
   Species          Molality    Activity  Molality  Activity     Gamma   cm3/mol

   OH-            1.098e-007  1.098e-007    -6.959    -6.959    -0.000     -0.21
   H+             1.096e-007  1.096e-007    -6.960    -6.960    -0.000      0.00
   H2O            5.551e+001  1.000e+000     1.744    -0.000     0.000     16.71
H(0)         4.726e-015
   H2             2.363e-015  2.363e-015   -14.627   -14.627     0.000     28.08
O(0)         0.000e+000
   O2             0.000e+000  0.000e+000   -70.098   -70.098     0.000     28.06

------------------------------Saturation indices-------------------------------

	Phase               SI   log IAP   log K(283 K, 1974 atm)

	H2(g)           -11.57    -14.63   -3.05  H2
	H2O(g)           -1.29     -0.00    1.29  H2O
	O2(g)           -66.10    -70.10   -4.00  O2


Reaction step 3.

Using solution 1.	
Using temperature 1.	
Using pressure 1.	

-----------------------------Solution composition------------------------------

	Elements           Molality       Moles

	Pure water     

----------------------------Description of solution----------------------------

                                       pH  =   6.792      Charge balance
                                       pe  =  -1.542      Adjusted to redox equilibrium
       Specific Conductance (uS/cm, 20 oC) = 0
                          Density (g/cm3)  =   1.07414
                        Activity of water  =   1.000
                           Ionic strength  =  1.617e-007
                       Mass of water (kg)  =  1.000e+000
                 Total alkalinity (eq/kg)  =  2.208e-010
                    Total carbon (mol/kg)  =  0.000e+000
                       Total CO2 (mol/kg)  =  0.000e+000
                      Temperature (deg C)  =  20.00
                           Pressure (atm)  = 1974.00
                  Electrical balance (eq)  = -2.208e-010
 Percent error, 100*(Cat-|An|)/(Cat+|An|)  =  -0.07
                               Iterations  =  11
                                  Total H  = 1.110124e+002
                                  Total O  = 5.550622e+001

----------------------------Distribution of species----------------------------

                                               Log       Log       Log    mole V
   Species          Molality    Activity  Molality  Activity     Gamma   cm3/mol

   OH-            1.618e-007  1.617e-007    -6.791    -6.791    -0.000      0.26
   H+             1.616e-007  1.615e-007    -6.792    -6.792    -0.000      0.00
   H2O            5.551e+001  1.000e+000     1.744    -0.000     0.000     16.77
H(0)         4.726e-015
   H2             2.363e-015  2.363e-015   -14.627   -14.627     0.000     28.07
O(0)         0.000e+000
   O2             0.000e+000  0.000e+000   -66.587   -66.587     0.000     28.48

------------------------------Saturation indices-------------------------------

	Phase               SI   log IAP   log K(293 K, 1974 atm)

	H2(g)           -11.54    -14.63   -3.09  H2
	H2O(g)           -1.04     -0.00    1.04  H2O
	O2(g)           -62.54    -66.59   -4.05  O2


Reaction step 4.

Using solution 1.	
Using temperature 1.	
Using pressure 1.	

-----------------------------Solution composition------------------------------

	Elements           Molality       Moles

	Pure water     

----------------------------Description of solution----------------------------

                                       pH  =   6.638      Charge balance
                                       pe  =  -1.393      Adjusted to redox equilibrium
       Specific Conductance (uS/cm, 30 oC) = 0
                          Density (g/cm3)  =   1.06981
                        Activity of water  =   1.000
                           Ionic strength  =  2.306e-007
                       Mass of water (kg)  =  1.000e+000
[...]
                       Mass of water (kg)  =  1.000e+000
                 Total alkalinity (eq/kg)  =  2.208e-010
                    Total carbon (mol/kg)  =  0.000e+000
                       Total CO2 (mol/kg)  =  0.000e+000
                      Temperature (deg C)  = 220.00
                           Pressure (atm)  = 1974.00
                  Electrical balance (eq)  = -2.208e-010
 Percent error, 100*(Cat-|An|)/(Cat+|An|)  =  -0.00
                               Iterations  =  15
                                  Total H  = 1.110124e+002
                                  Total O  = 5.550622e+001

----------------------------Distribution of species----------------------------

                                               Log       Log       Log    mole V
   Species          Molality    Activity  Molality  Activity     Gamma   cm3/mol

   OH-            4.732e-006  4.715e-006    -5.325    -5.326    -0.002     -8.31
   H+             4.732e-006  4.715e-006    -5.325    -5.326    -0.002      0.00
   H2O            5.551e+001  1.000e+000     1.744    -0.000     0.000     18.90
H(0)         1.010e-023
   H2             5.050e-024  5.050e-024   -23.297   -23.297     0.000     28.01
O(0)         3.140e-009
   O2             1.570e-009  1.570e-009    -8.804    -8.804     0.000     32.06

------------------------------Saturation indices-------------------------------

	Phase               SI   log IAP   log K(493 K, 1974 atm)

	H2(g)           -20.57    -23.30   -2.73  H2
	H2O(g)            1.71     -0.00   -1.71  H2O
	O2(g)            -5.22     -8.80   -3.58  O2


Reaction step 24.

Using solution 1.	
Using temperature 1.	
Using pressure 1.	

-----------------------------Solution composition------------------------------

	Elements           Molality       Moles

	Pure water     

----------------------------Description of solution----------------------------

                                       pH  =   5.309      Charge balance
                                       pe  =   3.887      Adjusted to redox equilibrium
       Specific Conductance (uS/cm, 230 oC) = 21
                          Density (g/cm3)  =   0.94572
                        Activity of water  =   1.000
                           Ionic strength  =  4.926e-006
                       Mass of water (kg)  =  1.000e+000
                 Total alkalinity (eq/kg)  =  2.208e-010
                    Total carbon (mol/kg)  =  0.000e+000
                       Total CO2 (mol/kg)  =  0.000e+000
                      Temperature (deg C)  = 230.00
                           Pressure (atm)  = 1974.00
                  Electrical balance (eq)  = -2.208e-010
 Percent error, 100*(Cat-|An|)/(Cat+|An|)  =  -0.00
                               Iterations  =  18
                                  Total H  = 1.110124e+002
                                  Total O  = 5.550622e+001

----------------------------Distribution of species----------------------------

                                               Log       Log       Log    mole V
   Species          Molality    Activity  Molality  Activity     Gamma   cm3/mol

   OH-            4.926e-006  4.908e-006    -5.307    -5.309    -0.002     -9.48
   H+             4.926e-006  4.908e-006    -5.308    -5.309    -0.002      0.00
   H2O            5.551e+001  1.000e+000     1.744    -0.000     0.000     19.05
H(0)         4.489e-023
   H2             2.244e-023  2.244e-023   -22.649   -22.649     0.000     28.01
O(0)         2.401e-009
   O2             1.200e-009  1.200e-009    -8.921    -8.921     0.000     32.29

------------------------------Saturation indices-------------------------------

	Phase               SI   log IAP   log K(503 K, 1974 atm)

	H2(g)           -19.96    -22.65   -2.69  H2
	H2O(g)            1.78     -0.00   -1.78  H2O
	O2(g)            -5.39     -8.92   -3.53  O2


Reaction step 25.

Using solution 1.	
Using temperature 1.	
Using pressure 1.	

-----------------------------Solution composition------------------------------

	Elements           Molality       Moles

	Pure water     

----------------------------Description of solution----------------------------

                                       pH  =   5.295      Charge balance
                                       pe  =   3.684      Adjusted to redox equilibrium
       Specific Conductance (uS/cm, 240 oC) = 23
                          Density (g/cm3)  =   0.93795
                        Activity of water  =   1.000
                           Ionic strength  =  5.085e-006
                       Mass of water (kg)  =  1.000e+000
                 Total alkalinity (eq/kg)  =  2.208e-010
                    Total carbon (mol/kg)  =  0.000e+000
                       Total CO2 (mol/kg)  =  0.000e+000
                      Temperature (deg C)  = 240.00
                           Pressure (atm)  = 1974.00
                  Electrical balance (eq)  = -2.208e-010
 Percent error, 100*(Cat-|An|)/(Cat+|An|)  =  -0.00
                               Iterations  =  20
                                  Total H  = 1.110124e+002
                                  Total O  = 5.550622e+001

----------------------------Distribution of species----------------------------

                                               Log       Log       Log    mole V
   Species          Molality    Activity  Molality  Activity     Gamma   cm3/mol

   OH-            5.085e-006  5.066e-006    -5.294    -5.295    -0.002    -10.75
   H+             5.085e-006  5.066e-006    -5.294    -5.295    -0.002      0.00
   H2O            5.551e+001  1.000e+000     1.744    -0.000     0.000     19.21
H(0)         1.210e-022
   H2             6.051e-023  6.051e-023   -22.218   -22.218     0.000     28.01
O(0)         4.485e-009
   O2             2.242e-009  2.242e-009    -8.649    -8.649     0.000     32.53

------------------------------Saturation indices-------------------------------

	Phase               SI   log IAP   log K(513 K, 1974 atm)

	H2(g)           -19.57    -22.22   -2.65  H2
	H2O(g)            1.85     -0.00   -1.85  H2O
	O2(g)            -5.18     -8.65   -3.47  O2


Reaction step 26.

Using solution 1.	
Using temperature 1.	
Using pressure 1.	

-----------------------------Solution composition------------------------------

	Elements           Molality       Moles

	Pure water     

----------------------------Description of solution----------------------------

                                       pH  =   5.285      Charge balance
                                       pe  =   3.368      Adjusted to redox equilibrium
       Specific Conductance (uS/cm, 250 oC) = 25
                          Density (g/cm3)  =   0.93005
                        Activity of water  =   1.000
                           Ionic strength  =  5.205e-006
                       Mass of water (kg)  =  1.000e+000
                 Total alkalinity (eq/kg)  =  2.208e-010
                    Total carbon (mol/kg)  =  0.000e+000
                       Total CO2 (mol/kg)  =  0.000e+000
                      Temperature (deg C)  = 250.00
                           Pressure (atm)  = 1974.00
                  Electrical balance (eq)  = -2.208e-010
 Percent error, 100*(Cat-|An|)/(Cat+|An|)  =  -0.00
                               Iterations  =  23
                                  Total H  = 1.110124e+002
                                  Total O  = 5.550622e+001

----------------------------Distribution of species----------------------------

                                               Log       Log       Log    mole V
   Species          Molality    Activity  Molality  Activity     Gamma   cm3/mol

   OH-            5.205e-006  5.185e-006    -5.284    -5.285    -0.002    -12.12
   H+             5.205e-006  5.185e-006    -5.284    -5.285    -0.002      0.00
   H2O            5.551e+001  1.000e+000     1.744    -0.000     0.000     19.37
H(0)         5.381e-022
   H2             2.691e-022  2.691e-022   -21.570   -21.570     0.000     28.01
O(0)         2.787e-009
   O2             1.393e-009  1.393e-009    -8.856    -8.856     0.000     32.80

------------------------------Saturation indices-------------------------------

	Phase               SI   log IAP   log K(523 K, 1974 atm)

	H2(g)           -18.96    -21.57   -2.61  H2
	H2O(g)            1.91     -0.00   -1.91  H2O
	O2(g)            -5.45     -8.86   -3.41  O2


Reaction step 27.

Using solution 1.	
Using temperature 1.	
Using pressure 1.	

-----------------------------Solution composition------------------------------

	Elements           Molality       Moles

	Pure water     

----------------------------Description of solution----------------------------

                                       pH  =   5.279      Charge balance
                                       pe  =   3.157      Adjusted to redox equilibrium
       Specific Conductance (uS/cm, 260 oC) = 26
                          Density (g/cm3)  =   0.92202
                        Activity of water  =   1.000
                           Ionic strength  =  5.285e-006
                       Mass of water (kg)  =  1.000e+000
                 Total alkalinity (eq/kg)  =  2.208e-010
                    Total carbon (mol/kg)  =  0.000e+000
                       Total CO2 (mol/kg)  =  0.000e+000
                      Temperature (deg C)  = 260.00
                           Pressure (atm)  = 1974.00
                  Electrical balance (eq)  = -2.208e-010
 Percent error, 100*(Cat-|An|)/(Cat+|An|)  =  -0.00
                               Iterations  =  25
                                  Total H  = 1.110124e+002
                                  Total O  = 5.550622e+001

----------------------------Distribution of species----------------------------

                                               Log       Log       Log    mole V
   Species          Molality    Activity  Molality  Activity     Gamma   cm3/mol

   OH-            5.285e-006  5.264e-006    -5.277    -5.279    -0.002    -13.60
   H+             5.285e-006  5.264e-006    -5.277    -5.279    -0.002      0.00
   H2O            5.551e+001  1.000e+000     1.744    -0.000     0.000     19.54
H(0)         1.452e-021
   H2             7.259e-022  7.259e-022   -21.139   -21.139     0.000     28.01
O(0)         4.281e-009
   O2             2.141e-009  2.141e-009    -8.669    -8.669     0.000     33.07

------------------------------Saturation indices-------------------------------

	Phase               SI   log IAP   log K(533 K, 1974 atm)

	H2(g)           -18.57    -21.14   -2.56  H2
	H2O(g)            1.97     -0.00   -1.97  H2O
	O2(g)            -5.32     -8.67   -3.35  O2


Reaction step 28.

Using solution 1.	
Using temperature 1.	
Using pressure 1.	

-----------------------------Solution composition------------------------------

	Elements           Molality       Moles

	Pure water     

----------------------------Description of solution----------------------------

                                       pH  =   5.276      Charge balance
                                       pe  =   2.835      Adjusted to redox equilibrium
       Specific Conductance (uS/cm, 270 oC) = 28
                          Density (g/cm3)  =   0.91389
                        Activity of water  =   1.000
                           Ionic strength  =  5.322e-006
                       Mass of water (kg)  =  1.000e+000
                 Total alkalinity (eq/kg)  =  2.208e-010
                    Total carbon (mol/kg)  =  0.000e+000
                       Total CO2 (mol/kg)  =  0.000e+000
                      Temperature (deg C)  = 270.00
                           Pressure (atm)  = 1974.00
                  Electrical balance (eq)  = -2.208e-010
 Percent error, 100*(Cat-|An|)/(Cat+|An|)  =  -0.00
                               Iterations  =  28
                                  Total H  = 1.110124e+002
                                  Total O  = 5.550622e+001

----------------------------Distribution of species----------------------------

                                               Log       Log       Log    mole V
   Species          Molality    Activity  Molality  Activity     Gamma   cm3/mol

   OH-            5.322e-006  5.300e-006    -5.274    -5.276    -0.002    -15.20
   H+             5.322e-006  5.300e-006    -5.274    -5.276    -0.002      0.00
   H2O            5.551e+001  1.000e+000     1.744    -0.000     0.000     19.71
H(0)         6.459e-021
   H2             3.230e-021  3.230e-021   -20.491   -20.491     0.000     28.01
O(0)         2.212e-009
   O2             1.106e-009  1.106e-009    -8.956    -8.956     0.000     33.37

------------------------------Saturation indices-------------------------------

	Phase               SI   log IAP   log K(543 K, 1974 atm)

	H2(g)           -17.97    -20.49   -2.52  H2
	H2O(g)            2.03     -0.00   -2.03  H2O
	O2(g)            -5.67     -8.96   -3.29  O2


Reaction step 29.

Using solution 1.	
Using temperature 1.	
Using pressure 1.	

-----------------------------Solution composition------------------------------

	Elements           Molality       Moles

	Pure water     

----------------------------Description of solution----------------------------

                                       pH  =   5.276      Charge balance
                                       pe  =   2.617      Adjusted to redox equilibrium
       Specific Conductance (uS/cm, 280 oC) = 29
                          Density (g/cm3)  =   0.90569
                        Activity of water  =   1.000
                           Ionic strength  =  5.317e-006
                       Mass of water (kg)  =  1.000e+000
                 Total alkalinity (eq/kg)  =  2.208e-010
                    Total carbon (mol/kg)  =  0.000e+000
                       Total CO2 (mol/kg)  =  0.000e+000
                      Temperature (deg C)  = 280.00
                           Pressure (atm)  = 1974.00
                  Electrical balance (eq)  = -2.208e-010
 Percent error, 100*(Cat-|An|)/(Cat+|An|)  =  -0.00
                               Iterations  =  30
                                  Total H  = 1.110124e+002
                                  Total O  = 5.550622e+001

----------------------------Distribution of species----------------------------

                                               Log       Log       Log    mole V
   Species          Molality    Activity  Molality  Activity     Gamma   cm3/mol

   OH-            5.317e-006  5.295e-006    -5.274    -5.276    -0.002    -16.91
   H+             5.317e-006  5.294e-006    -5.274    -5.276    -0.002      0.00
   H2O            5.551e+001  1.000e+000     1.744    -0.000     0.000     19.89
H(0)         1.743e-020
   H2             8.717e-021  8.717e-021   -20.060   -20.060     0.000     28.00
O(0)         2.852e-009
   O2             1.426e-009  1.426e-009    -8.846    -8.846     0.000     33.69

------------------------------Saturation indices-------------------------------

	Phase               SI   log IAP   log K(553 K, 1974 atm)

	H2(g)           -17.58    -20.06   -2.48  H2
	H2O(g)            2.08     -0.00   -2.08  H2O
	O2(g)            -5.62     -8.85   -3.23  O2


Reaction step 30.

Using solution 1.	
Using temperature 1.	
Using pressure 1.	

-----------------------------Solution composition------------------------------

	Elements           Molality       Moles

	Pure water     

----------------------------Description of solution----------------------------

                                       pH  =   5.280      Charge balance
                                       pe  =   2.396      Adjusted to redox equilibrium
       Specific Conductance (uS/cm, 290 oC) = 30
                          Density (g/cm3)  =   0.89762
                        Activity of water  =   1.000
                           Ionic strength  =  5.268e-006
                       Mass of water (kg)  =  1.000e+000
                 Total alkalinity (eq/kg)  =  2.208e-010
                    Total carbon (mol/kg)  =  0.000e+000
                       Total CO2 (mol/kg)  =  0.000e+000
                      Temperature (deg C)  = 290.00
                           Pressure (atm)  = 1974.00
                  Electrical balance (eq)  = -2.208e-010
 Percent error, 100*(Cat-|An|)/(Cat+|An|)  =  -0.00
                               Iterations  =  32
                                  Total H  = 1.110124e+002
                                  Total O  = 5.550622e+001

----------------------------Distribution of species----------------------------

                                               Log       Log       Log    mole V
   Species          Molality    Activity  Molality  Activity     Gamma   cm3/mol

   OH-            5.269e-006  5.246e-006    -5.278    -5.280    -0.002    -18.76
   H+             5.268e-006  5.246e-006    -5.278    -5.280    -0.002      0.00
   H2O            5.551e+001  1.000e+000     1.744    -0.000     0.000     20.07
H(0)         4.707e-020
   H2             2.354e-020  2.354e-020   -19.628   -19.628     0.000     28.00
O(0)         3.393e-009
   O2             1.696e-009  1.696e-009    -8.770    -8.770     0.000     34.03

------------------------------Saturation indices-------------------------------

	Phase               SI   log IAP   log K(563 K, 1974 atm)

	H2(g)           -17.20    -19.63   -2.43  H2
	H2O(g)            2.13     -0.00   -2.13  H2O
	O2(g)            -5.61     -8.77   -3.17  O2


Reaction step 31.

Using solution 1.	
Using temperature 1.	
Using pressure 1.	

-----------------------------Solution composition------------------------------

	Elements           Molality       Moles

	Pure water     

----------------------------Description of solution----------------------------

                                       pH  =   5.288      Charge balance
                                       pe  =   2.171      Adjusted to redox equilibrium
       Specific Conductance (uS/cm, 300 oC) = 31
                          Density (g/cm3)  =   0.89042
                        Activity of water  =   1.000
                           Ionic strength  =  5.177e-006
                       Mass of water (kg)  =  1.000e+000
                 Total alkalinity (eq/kg)  =  2.208e-010
                    Total carbon (mol/kg)  =  0.000e+000
                       Total CO2 (mol/kg)  =  0.000e+000
                      Temperature (deg C)  = 300.00
                           Pressure (atm)  = 1974.00
                  Electrical balance (eq)  = -2.208e-010
 Percent error, 100*(Cat-|An|)/(Cat+|An|)  =  -0.00
                               Iterations  =  34
                                  Total H  = 1.110124e+002
                                  Total O  = 5.550622e+001

----------------------------Distribution of species----------------------------

                                               Log       Log       Log    mole V
   Species          Molality    Activity  Molality  Activity     Gamma   cm3/mol

   OH-            5.177e-006  5.154e-006    -5.286    -5.288    -0.002    -20.73
   H+             5.177e-006  5.154e-006    -5.286    -5.288    -0.002      0.00
   H2O            5.551e+001  1.000e+000     1.744    -0.000     0.000     20.23
H(0)         1.271e-019
   H2             6.356e-020  6.356e-020   -19.197   -19.197     0.000     28.00
O(0)         3.732e-009
   O2             1.866e-009  1.866e-009    -8.729    -8.729     0.000     34.39

------------------------------Saturation indices-------------------------------

	Phase               SI   log IAP   log K(573 K, 1974 atm)

	H2(g)           -16.81    -19.20   -2.39  H2
	H2O(g)            2.17     -0.00   -2.17  H2O
	O2(g)            -5.63     -8.73   -3.10  O2


------------------
End of simulation.
------------------

------------------------------------
Reading input data for simulation 3.
------------------------------------

-------------------------------
End of Run after 1.125 Seconds.
-------------------------------

