WARNING: Database file from DATABASE keyword is used; command line argument ignored.
   Input file: halite
  Output file: halite.out
Database file: ../database/pitzer.dat

------------------
Reading data base.
------------------

	SOLUTION_MASTER_SPECIES
	SOLUTION_SPECIES
	PHASES
	PITZER
	EXCHANGE_MASTER_SPECIES
	EXCHANGE_SPECIES
	SURFACE_MASTER_SPECIES
	SURFACE_SPECIES
	END
------------------------------------
Reading input data for simulation 1.
------------------------------------

	DATABASE ../database/pitzer.dat
	SOLUTION_SPECIES
	Na+ = Na+
		gamma	4.08 0.082 # Halite solubility according to pitzer.dat
		dw	 1.33e-9
		vm  1.403  -2.285  4.419  -2.726  -5.125e-5  4.0  0.162  47.67  -3.09e-3  0.725 # supcrt modified
		vm  1.403  -2.285  4.419  -2.726  -5.125e-5  2.0  0.162  47.67  -3.09e-3  0.4
	PHASES
	Halite
		NaCl  =  Cl- + Na+
		log_k	   1.583
		analytical_expression -713.4616   -.1201241   37302.21    262.4583    -2106915.
		vm 27.1
	SOLUTION 1
	 pH 7 charge
	 temp 30
	EQUILIBRIUM_PHASES
	 Halite
	REACTION_PRESSURE
	 1 2000 in 10
	USER_GRAPH
	 -headings p model
	 -axis_titles "Pressure / bar" " Halite solubility / mol/kgw"
	 -axis_scale x_axis 0 2e3
	 -plot_csv_file halite.dat
	 10 graph_x pressure * 1.013
	 20 graph_y tot("Na")
	END
-------------------------------------------
Beginning of initial solution calculations.
-------------------------------------------

Initial solution 1.	

-----------------------------Solution composition------------------------------

	Elements           Molality       Moles

	Pure water     

----------------------------Description of solution----------------------------

                                       pH  =   6.917      Charge balance
                                       pe  =   4.000    
       Specific Conductance (uS/cm, 30 oC) = 0
                          Density (g/cm3)  =   0.99564
                               Volume (L)  =   1.00437
                        Activity of water  =   1.000
                           Ionic strength  =   1.212e-07
                       Mass of water (kg)  =   1.000e+00
                 Total alkalinity (eq/kg)  =  -2.382e-22
                    Total carbon (mol/kg)  =   0.000e+00
                       Total CO2 (mol/kg)  =   0.000e+00
                      Temperature (deg C)  =  30.00
                  Electrical balance (eq)  =   2.382e-22
 Percent error, 100*(Cat-|An|)/(Cat+|An|)  =   0.00
                               Iterations  =   5
                         Gamma iterations  =   2
                      Osmotic coefficient  =   0.99986
                         Density of water  =   0.99564
                                  Total H  = 1.110124e+02
                                  Total O  = 5.550622e+01

----------------------------Distribution of species----------------------------

                                                    MacInnes  MacInnes
                                MacInnes       Log       Log       Log    mole V
   Species          Molality    Activity  Molality  Activity     Gamma   cm3/mol

   H+              1.212e-07   1.212e-07    -6.916    -6.917    -0.000      0.00
   OH-             1.212e-07   1.212e-07    -6.916    -6.917    -0.000     -3.98
   H2O             5.551e+01   1.000e+00     1.744    -0.000     0.000     18.09

------------------------------Saturation indices-------------------------------

	Phase               SI** log IAP   log K(303 K,   1 atm)

	H2O(g)           -1.38     -0.00    1.38  H2O

**For a gas, SI = log10(fugacity). For ideal gases, fugacity = pressure / 1 atm.
For a Peng-Robinson gas, fugacity = pressure * phi / 1 atm

-----------------------------------------
Beginning of batch-reaction calculations.
-----------------------------------------

Reaction step 1.

Using solution 1.	
Using pure phase assemblage 1.	
Using pressure 1.	

-------------------------------Phase assemblage--------------------------------

                                                      Moles in assemblage
Phase               SI  log IAP  log K(T, P)   Initial       Final       Delta

Halite            0.00     1.58      1.58    1.000e+01   3.895e+00  -6.105e+00

-----------------------------Solution composition------------------------------

	Elements           Molality       Moles

	Cl                6.105e+00   6.105e+00
	Na                6.105e+00   6.105e+00

----------------------------Description of solution----------------------------

                                       pH  =   6.307      Charge balance
                                       pe  =   4.000      Adjusted to redox equilibrium
       Specific Conductance (uS/cm, 30 oC) = 501417
                          Density (g/cm3)  =   1.19713
                               Volume (L)  =   1.13337
                        Activity of water  =   0.754
                           Ionic strength  =   6.105e+00
                       Mass of water (kg)  =   1.000e+00
                 Total alkalinity (eq/kg)  =   3.192e-17
                    Total carbon (mol/kg)  =   0.000e+00
                       Total CO2 (mol/kg)  =   0.000e+00
                      Temperature (deg C)  =  30.00
                  Electrical balance (eq)  =  -4.923e-14
 Percent error, 100*(Cat-|An|)/(Cat+|An|)  =  -0.00
                               Iterations  =  14
                         Gamma iterations  =   5
                      Osmotic coefficient  =   1.28181
                         Density of water  =   0.99564
                                  Total H  = 1.110124e+02
                                  Total O  = 5.550622e+01

----------------------------Distribution of species----------------------------

                                                    MacInnes  MacInnes
                                MacInnes       Log       Log       Log    mole V
   Species          Molality    Activity  Molality  Activity     Gamma   cm3/mol

   OH-             6.756e-08   2.245e-08    -7.170    -7.649    -0.478      5.12
   H+              6.756e-08   4.932e-07    -7.170    -6.307     0.863      0.00
   H2O             5.551e+01   7.543e-01     1.744    -0.122     0.000     18.09
Cl            6.105e+00
   Cl-             6.105e+00   3.798e+00     0.786     0.580    -0.206     20.22
Na            6.105e+00
   Na+             6.105e+00   9.938e+00     0.786     0.997     0.212      0.91

------------------------------Saturation indices-------------------------------

	Phase               SI** log IAP   log K(303 K,   1 atm)

	H2O(g)           -1.50     -0.12    1.38  H2O
	Halite            0.00      1.58    1.58  NaCl

**For a gas, SI = log10(fugacity). For ideal gases, fugacity = pressure / 1 atm.
For a Peng-Robinson gas, fugacity = pressure * phi / 1 atm

Reaction step 2.

Using solution 1.	
Using pure phase assemblage 1.	
Using pressure 1.	

-------------------------------Phase assemblage--------------------------------

                                                      Moles in assemblage
Phase               SI  log IAP  log K(T, P)   Initial       Final       Delta

Halite            0.00     1.60      1.60    1.000e+01   3.857e+00  -6.143e+00

-----------------------------Solution composition------------------------------

	Elements           Molality       Moles

	Cl                6.143e+00   6.143e+00
	Na                6.143e+00   6.143e+00

----------------------------Description of solution----------------------------

                                       pH  =   6.279      Charge balance
                                       pe  =   4.000      Adjusted to redox equilibrium
       Specific Conductance (uS/cm, 30 oC) = 509605
                          Density (g/cm3)  =   1.20408
                               Volume (L)  =   1.12868
                        Activity of water  =   0.752
                           Ionic strength  =   6.143e+00
                       Mass of water (kg)  =   1.000e+00
                 Total alkalinity (eq/kg)  =   3.186e-16
                    Total carbon (mol/kg)  =   0.000e+00
                       Total CO2 (mol/kg)  =   0.000e+00
                      Temperature (deg C)  =  30.00
                           Pressure (atm)  = 223.11
                  Electrical balance (eq)  =  -2.533e-12
 Percent error, 100*(Cat-|An|)/(Cat+|An|)  =  -0.00
                               Iterations  =  15
                         Gamma iterations  =   5
                      Osmotic coefficient  =   1.28757
                         Density of water  =   1.00538
                                  Total H  = 1.110124e+02
                                  Total O  = 5.550622e+01

----------------------------Distribution of species----------------------------

                                                    MacInnes  MacInnes
                                MacInnes       Log       Log       Log    mole V
   Species          Molality    Activity  Molality  Activity     Gamma   cm3/mol

   OH-             6.993e-08   2.346e-08    -7.155    -7.630    -0.474      5.54
   H+              6.993e-08   5.257e-07    -7.155    -6.279     0.876      0.00
   H2O             5.551e+01   7.520e-01     1.744    -0.124     0.000     17.92
Cl            6.143e+00
   Cl-             6.143e+00   3.876e+00     0.788     0.588    -0.200     20.20
Na            6.143e+00
   Na+             6.143e+00   1.021e+01     0.788     1.009     0.221      1.62

------------------------------Saturation indices-------------------------------

	Phase               SI** log IAP   log K(303 K, 223 atm)

	H2O(g)           -1.43     -0.12    1.31  H2O
	Halite            0.00      1.60    1.60  NaCl

**For a gas, SI = log10(fugacity). For ideal gases, fugacity = pressure / 1 atm.
For a Peng-Robinson gas, fugacity = pressure * phi / 1 atm

Reaction step 3.

Using solution 1.	
Using pure phase assemblage 1.	
Using pressure 1.	

-------------------------------Phase assemblage--------------------------------

                                                      Moles in assemblage
Phase               SI  log IAP  log K(T, P)   Initial       Final       Delta

Halite            0.00     1.61      1.61    1.000e+01   3.835e+00  -6.165e+00

-----------------------------Solution composition------------------------------

	Elements           Molality       Moles

	Cl                6.165e+00   6.165e+00
	Na                6.165e+00   6.165e+00

----------------------------Description of solution----------------------------

                                       pH  =   6.255      Charge balance
                                       pe  =   4.000      Adjusted to redox equilibrium
       Specific Conductance (uS/cm, 30 oC) = 516405
                          Density (g/cm3)  =   1.21055
                               Volume (L)  =   1.12368
                        Activity of water  =   0.751
                           Ionic strength  =   6.165e+00
                       Mass of water (kg)  =   1.000e+00
                 Total alkalinity (eq/kg)  =  -2.990e-16
                    Total carbon (mol/kg)  =   0.000e+00
                       Total CO2 (mol/kg)  =   0.000e+00
                      Temperature (deg C)  =  30.00
                           Pressure (atm)  = 445.22
                  Electrical balance (eq)  =   4.830e-12
 Percent error, 100*(Cat-|An|)/(Cat+|An|)  =   0.00
                               Iterations  =  17
                         Gamma iterations  =   5
                      Osmotic coefficient  =   1.29186
                         Density of water  =   1.01478
                                  Total H  = 1.110124e+02
                                  Total O  = 5.550622e+01

----------------------------Distribution of species----------------------------

                                                    MacInnes  MacInnes
                                MacInnes       Log       Log       Log    mole V
   Species          Molality    Activity  Molality  Activity     Gamma   cm3/mol

   H+              7.234e-08   5.555e-07    -7.141    -6.255     0.885      0.00
   OH-             7.234e-08   2.451e-08    -7.141    -7.611    -0.470      5.91
   H2O             5.551e+01   7.506e-01     1.744    -0.125     0.000     17.75
Cl            6.165e+00
   Cl-             6.165e+00   3.939e+00     0.790     0.595    -0.195     20.20
Na            6.165e+00
   Na+             6.165e+00   1.042e+01     0.790     1.018     0.228      2.23

------------------------------Saturation indices-------------------------------

	Phase               SI** log IAP   log K(303 K, 445 atm)

	H2O(g)           -1.36     -0.12    1.24  H2O
	Halite            0.00      1.61    1.61  NaCl

**For a gas, SI = log10(fugacity). For ideal gases, fugacity = pressure / 1 atm.
For a Peng-Robinson gas, fugacity = pressure * phi / 1 atm

Reaction step 4.

Using solution 1.	
Using pure phase assemblage 1.	
Using pressure 1.	

-------------------------------Phase assemblage--------------------------------

                                                      Moles in assemblage
Phase               SI  log IAP  log K(T, P)   Initial       Final       Delta

Halite            0.00     1.63      1.63    1.000e+01   3.827e+00  -6.173e+00

-----------------------------Solution composition------------------------------

	Elements           Molality       Moles

	Cl                6.173e+00   6.173e+00
	Na                6.173e+00   6.173e+00

----------------------------Description of solution----------------------------

                                       pH  =   6.234      Charge balance
                                       pe  =   4.000      Adjusted to redox equilibrium
       Specific Conductance (uS/cm, 30 oC) = 522045
                          Density (g/cm3)  =   1.21662
                               Volume (L)  =   1.11848
                        Activity of water  =   0.750
                           Ionic strength  =   6.173e+00
                       Mass of water (kg)  =   1.000e+00
                 Total alkalinity (eq/kg)  =  -2.474e-16
                    Total carbon (mol/kg)  =   0.000e+00
                       Total CO2 (mol/kg)  =   0.000e+00
                      Temperature (deg C)  =  30.00
                           Pressure (atm)  = 667.33
                  Electrical balance (eq)  =   4.602e-12
 Percent error, 100*(Cat-|An|)/(Cat+|An|)  =   0.00
                               Iterations  =  19
                         Gamma iterations  =   5
                      Osmotic coefficient  =   1.29496
                         Density of water  =   1.02378
                                  Total H  = 1.110124e+02
                                  Total O  = 5.550622e+01

----------------------------Distribution of species----------------------------

                                                    MacInnes  MacInnes
                                MacInnes       Log       Log       Log    mole V
   Species          Molality    Activity  Molality  Activity     Gamma   cm3/mol

   H+              7.478e-08   5.829e-07    -7.126    -6.234     0.892      0.00
   OH-             7.478e-08   2.560e-08    -7.126    -7.592    -0.465      6.23
   H2O             5.551e+01   7.497e-01     1.744    -0.125     0.000     17.60
Cl            6.173e+00
   Cl-             6.173e+00   3.990e+00     0.790     0.601    -0.189     20.21
Na            6.173e+00
   Na+             6.173e+00   1.057e+01     0.790     1.024     0.234      2.75

------------------------------Saturation indices-------------------------------

	Phase               SI** log IAP   log K(303 K, 667 atm)

	H2O(g)           -1.30     -0.13    1.17  H2O
	Halite            0.00      1.63    1.63  NaCl

**For a gas, SI = log10(fugacity). For ideal gases, fugacity = pressure / 1 atm.
For a Peng-Robinson gas, fugacity = pressure * phi / 1 atm

Reaction step 5.

Using solution 1.	
Using pure phase assemblage 1.	
Using pressure 1.	

-------------------------------Phase assemblage--------------------------------

                                                      Moles in assemblage
Phase               SI  log IAP  log K(T, P)   Initial       Final       Delta

Halite            0.00     1.63      1.63    1.000e+01   3.829e+00  -6.171e+00

-----------------------------Solution composition------------------------------

	Elements           Molality       Moles

	Cl                6.171e+00   6.171e+00
	Na                6.171e+00   6.171e+00

----------------------------Description of solution----------------------------

                                       pH  =   6.216      Charge balance
                                       pe  =   4.000      Adjusted to redox equilibrium
       Specific Conductance (uS/cm, 30 oC) = 526749
                          Density (g/cm3)  =   1.22243
                               Volume (L)  =   1.11310
                        Activity of water  =   0.749
                           Ionic strength  =   6.171e+00
                       Mass of water (kg)  =   1.000e+00
                 Total alkalinity (eq/kg)  =   4.156e-16
                    Total carbon (mol/kg)  =   0.000e+00
                       Total CO2 (mol/kg)  =   0.000e+00
                      Temperature (deg C)  =  30.00
                           Pressure (atm)  = 889.44
                  Electrical balance (eq)  =  -2.468e-12
 Percent error, 100*(Cat-|An|)/(Cat+|An|)  =  -0.00
                               Iterations  =  19
                         Gamma iterations  =   5
                      Osmotic coefficient  =   1.29714
                         Density of water  =   1.03241
                                  Total H  = 1.110124e+02
                                  Total O  = 5.550622e+01

----------------------------Distribution of species----------------------------

                                                    MacInnes  MacInnes
                                MacInnes       Log       Log       Log    mole V
   Species          Molality    Activity  Molality  Activity     Gamma   cm3/mol

   OH-             7.726e-08   2.674e-08    -7.112    -7.573    -0.461      6.49
   H+              7.726e-08   6.084e-07    -7.112    -6.216     0.896      0.00
   H2O             5.551e+01   7.494e-01     1.744    -0.125     0.000     17.45
Cl            6.171e+00
   Cl-             6.171e+00   4.032e+00     0.790     0.606    -0.185     20.22
Na            6.171e+00
   Na+             6.171e+00   1.068e+01     0.790     1.029     0.238      3.20

------------------------------Saturation indices-------------------------------

	Phase               SI** log IAP   log K(303 K, 889 atm)

	H2O(g)           -1.23     -0.13    1.11  H2O
	Halite            0.00      1.63    1.63  NaCl

**For a gas, SI = log10(fugacity). For ideal gases, fugacity = pressure / 1 atm.
For a Peng-Robinson gas, fugacity = pressure * phi / 1 atm

Reaction step 6.

Using solution 1.	
Using pure phase assemblage 1.	
Using pressure 1.	

-------------------------------Phase assemblage--------------------------------

                                                      Moles in assemblage
Phase               SI  log IAP  log K(T, P)   Initial       Final       Delta

Halite            0.00     1.64      1.64    1.000e+01   3.837e+00  -6.163e+00

-----------------------------Solution composition------------------------------

	Elements           Molality       Moles

	Cl                6.163e+00   6.163e+00
	Na                6.163e+00   6.163e+00

----------------------------Description of solution----------------------------

                                       pH  =   6.199      Charge balance
                                       pe  =   4.000      Adjusted to redox equilibrium
       Specific Conductance (uS/cm, 30 oC) = 530744
                          Density (g/cm3)  =   1.22818
                               Volume (L)  =   1.10749
                        Activity of water  =   0.749
                           Ionic strength  =   6.163e+00
                       Mass of water (kg)  =   1.000e+00
                 Total alkalinity (eq/kg)  =  -7.773e-17
                    Total carbon (mol/kg)  =   0.000e+00
                       Total CO2 (mol/kg)  =   0.000e+00
                      Temperature (deg C)  =  30.00
                           Pressure (atm)  = 1111.56
                  Electrical balance (eq)  =  -1.796e-11
 Percent error, 100*(Cat-|An|)/(Cat+|An|)  =  -0.00
                               Iterations  =  20
                         Gamma iterations  =   5
                      Osmotic coefficient  =   1.29866
                         Density of water  =   1.04077
                                  Total H  = 1.110124e+02
                                  Total O  = 5.550622e+01

----------------------------Distribution of species----------------------------

                                                    MacInnes  MacInnes
                                MacInnes       Log       Log       Log    mole V
   Species          Molality    Activity  Molality  Activity     Gamma   cm3/mol

   H+              7.978e-08   6.324e-07    -7.098    -6.199     0.899      0.00
   OH-             7.978e-08   2.792e-08    -7.098    -7.554    -0.456      6.71
   H2O             5.551e+01   7.495e-01     1.744    -0.125     0.000     17.31
Cl            6.163e+00
   Cl-             6.163e+00   4.067e+00     0.790     0.609    -0.180     20.21
Na            6.163e+00
   Na+             6.163e+00   1.076e+01     0.790     1.032     0.242      3.58

------------------------------Saturation indices-------------------------------

	Phase               SI** log IAP   log K(303 K, 1112 atm)

	H2O(g)           -1.17     -0.13    1.04  H2O
	Halite            0.00      1.64    1.64  NaCl

**For a gas, SI = log10(fugacity). For ideal gases, fugacity = pressure / 1 atm.
For a Peng-Robinson gas, fugacity = pressure * phi / 1 atm

Reaction step 7.

Using solution 1.	
Using pure phase assemblage 1.	
Using pressure 1.	

-------------------------------Phase assemblage--------------------------------

                                                      Moles in assemblage
Phase               SI  log IAP  log K(T, P)   Initial       Final       Delta

Halite           -0.00     1.65      1.65    1.000e+01   3.849e+00  -6.151e+00

-----------------------------Solution composition------------------------------

	Elements           Molality       Moles

	Cl                6.151e+00   6.151e+00
	Na                6.151e+00   6.151e+00

----------------------------Description of solution----------------------------

                                       pH  =   6.183      Charge balance
                                       pe  =   4.000      Adjusted to redox equilibrium
       Specific Conductance (uS/cm, 30 oC) = 534252
                          Density (g/cm3)  =   1.23414
                               Volume (L)  =   1.10158
                        Activity of water  =   0.750
                           Ionic strength  =   6.151e+00
                       Mass of water (kg)  =   1.000e+00
                 Total alkalinity (eq/kg)  =   7.895e-17
                    Total carbon (mol/kg)  =   0.000e+00
                       Total CO2 (mol/kg)  =   0.000e+00
                      Temperature (deg C)  =  30.00
                           Pressure (atm)  = 1333.67
                  Electrical balance (eq)  =  -4.191e-11
 Percent error, 100*(Cat-|An|)/(Cat+|An|)  =  -0.00
                               Iterations  =  20
                         Gamma iterations  =   5
                      Osmotic coefficient  =   1.29977
                         Density of water  =   1.04904
                                  Total H  = 1.110124e+02
                                  Total O  = 5.550622e+01

----------------------------Distribution of species----------------------------

                                                    MacInnes  MacInnes
                                MacInnes       Log       Log       Log    mole V
   Species          Molality    Activity  Molality  Activity     Gamma   cm3/mol

   OH-             8.235e-08   2.913e-08    -7.084    -7.536    -0.451      6.88
   H+              8.235e-08   6.557e-07    -7.084    -6.183     0.901      0.00
   H2O             5.551e+01   7.497e-01     1.744    -0.125     0.000     17.17
Cl            6.151e+00
   Cl-             6.151e+00   4.097e+00     0.789     0.613    -0.176     20.20
Na            6.151e+00
   Na+             6.151e+00   1.081e+01     0.789     1.034     0.245      3.92

------------------------------Saturation indices-------------------------------

	Phase               SI** log IAP   log K(303 K, 1334 atm)

	H2O(g)           -1.10     -0.13    0.98  H2O
	Halite           -0.00      1.65    1.65  NaCl

**For a gas, SI = log10(fugacity). For ideal gases, fugacity = pressure / 1 atm.
For a Peng-Robinson gas, fugacity = pressure * phi / 1 atm

Reaction step 8.

Using solution 1.	
Using pure phase assemblage 1.	
Using pressure 1.	

-------------------------------Phase assemblage--------------------------------

                                                      Moles in assemblage
Phase               SI  log IAP  log K(T, P)   Initial       Final       Delta

Halite            0.00     1.65      1.65    1.000e+01   3.861e+00  -6.139e+00

-----------------------------Solution composition------------------------------

	Elements           Molality       Moles

	Cl                6.139e+00   6.139e+00
	Na                6.139e+00   6.139e+00

----------------------------Description of solution----------------------------

                                       pH  =   6.168      Charge balance
                                       pe  =   4.000      Adjusted to redox equilibrium
       Specific Conductance (uS/cm, 30 oC) = 537492
                          Density (g/cm3)  =   1.24061
                               Volume (L)  =   1.09525
                        Activity of water  =   0.750
                           Ionic strength  =   6.139e+00
                       Mass of water (kg)  =   1.000e+00
                 Total alkalinity (eq/kg)  =  -1.602e-16
                    Total carbon (mol/kg)  =   0.000e+00
                       Total CO2 (mol/kg)  =   0.000e+00
                      Temperature (deg C)  =  30.00
                           Pressure (atm)  = 1555.78
                  Electrical balance (eq)  =  -6.667e-11
 Percent error, 100*(Cat-|An|)/(Cat+|An|)  =  -0.00
                               Iterations  =  21
                         Gamma iterations  =   5
                      Osmotic coefficient  =   1.30070
                         Density of water  =   1.05745
                                  Total H  = 1.110124e+02
                                  Total O  = 5.550622e+01

----------------------------Distribution of species----------------------------

                                                    MacInnes  MacInnes
                                MacInnes       Log       Log       Log    mole V
   Species          Molality    Activity  Molality  Activity     Gamma   cm3/mol

   H+              8.491e-08   6.786e-07    -7.071    -6.168     0.903      0.00
   OH-             8.491e-08   3.034e-08    -7.071    -7.518    -0.447      7.02
   H2O             5.551e+01   7.500e-01     1.744    -0.125     0.000     17.04
Cl            6.139e+00
   Cl-             6.139e+00   4.124e+00     0.788     0.615    -0.173     20.16
Na            6.139e+00
   Na+             6.139e+00   1.086e+01     0.788     1.036     0.248      4.21

------------------------------Saturation indices-------------------------------

	Phase               SI** log IAP   log K(303 K, 1556 atm)

	H2O(g)           -1.04     -0.12    0.91  H2O
	Halite            0.00      1.65    1.65  NaCl

**For a gas, SI = log10(fugacity). For ideal gases, fugacity = pressure / 1 atm.
For a Peng-Robinson gas, fugacity = pressure * phi / 1 atm

Reaction step 9.

Using solution 1.	
Using pure phase assemblage 1.	
Using pressure 1.	

-------------------------------Phase assemblage--------------------------------

                                                      Moles in assemblage
Phase               SI  log IAP  log K(T, P)   Initial       Final       Delta

Halite            0.00     1.66      1.66    1.000e+01   3.870e+00  -6.130e+00

-----------------------------Solution composition------------------------------

	Elements           Molality       Moles

	Cl                6.130e+00   6.130e+00
	Na                6.130e+00   6.130e+00

----------------------------Description of solution----------------------------

                                       pH  =   6.153      Charge balance
                                       pe  =   4.000      Adjusted to redox equilibrium
       Specific Conductance (uS/cm, 30 oC) = 540722
                          Density (g/cm3)  =   1.24798
                               Volume (L)  =   1.08834
                        Activity of water  =   0.750
                           Ionic strength  =   6.130e+00
                       Mass of water (kg)  =   1.000e+00
                 Total alkalinity (eq/kg)  =  -3.223e-16
                    Total carbon (mol/kg)  =   0.000e+00
                       Total CO2 (mol/kg)  =   0.000e+00
                      Temperature (deg C)  =  30.00
                           Pressure (atm)  = 1777.89
                  Electrical balance (eq)  =  -8.674e-11
 Percent error, 100*(Cat-|An|)/(Cat+|An|)  =  -0.00
                               Iterations  =  25
                         Gamma iterations  =   5
                      Osmotic coefficient  =   1.30172
                         Density of water  =   1.06626
                                  Total H  = 1.110124e+02
                                  Total O  = 5.550622e+01

----------------------------Distribution of species----------------------------

                                                    MacInnes  MacInnes
                                MacInnes       Log       Log       Log    mole V
   Species          Molality    Activity  Molality  Activity     Gamma   cm3/mol

   H+              8.751e-08   7.023e-07    -7.058    -6.153     0.904      0.00
   OH-             8.751e-08   3.156e-08    -7.058    -7.501    -0.443      7.11
   H2O             5.551e+01   7.501e-01     1.744    -0.125     0.000     16.90
Cl            6.130e+00
   Cl-             6.130e+00   4.151e+00     0.787     0.618    -0.169     20.10
Na            6.130e+00
   Na+             6.130e+00   1.091e+01     0.787     1.038     0.250      4.45

------------------------------Saturation indices-------------------------------

	Phase               SI** log IAP   log K(303 K, 1778 atm)

	H2O(g)           -0.98     -0.12    0.85  H2O
	Halite            0.00      1.66    1.66  NaCl

**For a gas, SI = log10(fugacity). For ideal gases, fugacity = pressure / 1 atm.
For a Peng-Robinson gas, fugacity = pressure * phi / 1 atm

Reaction step 10.

Using solution 1.	
Using pure phase assemblage 1.	
Using pressure 1.	

-------------------------------Phase assemblage--------------------------------

                                                      Moles in assemblage
Phase               SI  log IAP  log K(T, P)   Initial       Final       Delta

Halite            0.00     1.66      1.66    1.000e+01   3.874e+00  -6.126e+00

-----------------------------Solution composition------------------------------

	Elements           Molality       Moles

	Cl                6.126e+00   6.126e+00
	Na                6.126e+00   6.126e+00

----------------------------Description of solution----------------------------

                                       pH  =   6.139      Charge balance
                                       pe  =   4.000      Adjusted to redox equilibrium
       Specific Conductance (uS/cm, 30 oC) = 544137
                          Density (g/cm3)  =   1.25663
                               Volume (L)  =   1.08068
                        Activity of water  =   0.750
                           Ionic strength  =   6.126e+00
                       Mass of water (kg)  =   1.000e+00
                 Total alkalinity (eq/kg)  =   4.181e-16
                    Total carbon (mol/kg)  =   0.000e+00
                       Total CO2 (mol/kg)  =   0.000e+00
                      Temperature (deg C)  =  30.00
                           Pressure (atm)  = 2000.00
                  Electrical balance (eq)  =  -1.376e-10
 Percent error, 100*(Cat-|An|)/(Cat+|An|)  =  -0.00
                               Iterations  =  20
                         Gamma iterations  =   5
                      Osmotic coefficient  =   1.30303
                         Density of water  =   1.07580
                                  Total H  = 1.110124e+02
                                  Total O  = 5.550622e+01

----------------------------Distribution of species----------------------------

                                                    MacInnes  MacInnes
                                MacInnes       Log       Log       Log    mole V
   Species          Molality    Activity  Molality  Activity     Gamma   cm3/mol

   OH-             9.000e-08   3.272e-08    -7.046    -7.485    -0.440      7.17
   H+              9.000e-08   7.267e-07    -7.046    -6.139     0.907      0.00
   H2O             5.551e+01   7.501e-01     1.744    -0.125     0.000     16.75
Cl            6.126e+00
   Cl-             6.126e+00   4.180e+00     0.787     0.621    -0.166     20.01
Na            6.126e+00
   Na+             6.126e+00   1.098e+01     0.787     1.041     0.253      4.66

------------------------------Saturation indices-------------------------------

	Phase               SI** log IAP   log K(303 K, 2000 atm)

	H2O(g)           -0.92     -0.12    0.79  H2O
	Halite            0.00      1.66    1.66  NaCl

**For a gas, SI = log10(fugacity). For ideal gases, fugacity = pressure / 1 atm.
For a Peng-Robinson gas, fugacity = pressure * phi / 1 atm

------------------
End of simulation.
------------------

------------------------------------
Reading input data for simulation 2.
------------------------------------

------------------------------
End of Run after 0.03 Seconds.
------------------------------

