WARNING: Database file from DATABASE keyword is used; command line argument ignored.
   Input file: Hao_wateq4fhao
  Output file: Hao_wateq4fhao.out
Database file: ./wateq4fhao.dat

------------------
Reading data base.
------------------

	SOLUTION_MASTER_SPECIES
	SOLUTION_SPECIES
	PHASES
	EXCHANGE_MASTER_SPECIES
	EXCHANGE_SPECIES
	SURFACE_MASTER_SPECIES
	SURFACE_SPECIES
	RATES
	END
------------------------------------
Reading input data for simulation 1.
------------------------------------

	DATABASE ./wateq4fhao.dat
	SELECTED_OUTPUT 101
	    file                 Hao_wateq4fhao_101.sel
	USER_PUNCH 101
	    headings Mu SC
	    start
	10 PUNCH STR_F$(MU, 20, 12)
	20 PUNCH STR_F$(SC, 20, 10)
	    end
	SOLUTION 1
	Ca 1
	Cl 1
	END
-------------------------------------------
Beginning of initial solution calculations.
-------------------------------------------

Initial solution 1.	

-----------------------------Solution composition------------------------------

	Elements           Molality       Moles

	Ca                1.000e-03   1.000e-03
	Cl                1.000e-03   1.000e-03

----------------------------Description of solution----------------------------

                                       pH  =   7.000    
                                       pe  =   4.000    
                        Activity of water  =   1.000
                 Ionic strength (mol/kgw)  =   2.500e-03
                       Mass of water (kg)  =   1.000e+00
                 Total alkalinity (eq/kg)  =   1.933e-09
                         Temperature (°C)  =  25.00
                  Electrical balance (eq)  =   1.000e-03
 Percent error, 100*(Cat-|An|)/(Cat+|An|)  =  33.33
                               Iterations  =   4
                                  Total H  = 1.110124e+02
                                  Total O  = 5.550622e+01

----------------------------Distribution of species----------------------------

                                               Log       Log       Log    mole V
   Species          Molality    Activity  Molality  Activity     Gamma   cm³/mol

   OH-             1.058e-07   1.001e-07    -6.976    -7.000    -0.024     (0)  
   H+              1.052e-07   1.000e-07    -6.978    -7.000    -0.022      0.00
   H2O             5.551e+01   1.000e+00     1.744    -0.000     0.000     18.07
Ca            1.000e-03
   Ca+2            1.000e-03   8.056e-04    -3.000    -3.094    -0.094     (0)  
   CaOH+           1.413e-09   1.337e-09    -8.850    -8.874    -0.024     (0)  
Cl            1.000e-03
   Cl-             1.000e-03   9.461e-04    -3.000    -3.024    -0.024     (0)  
H(0)          1.415e-25
   H2              7.075e-26   7.079e-26   -25.150   -25.150     0.000     (0)  
O(0)          0.000e+00
   O2              0.000e+00   0.000e+00   -42.080   -42.080     0.000     (0)  

------------------------------Saturation indices-------------------------------

  Phase               SI** log IAP   log K(298 K,   1 atm)

  H2(g)           -22.00    -25.15   -3.15  H2
  H2O(g)           -1.51     -0.00    1.51  H2O
  O2(g)           -39.12    -42.08   -2.96  O2
  Portlandite     -11.89     10.91   22.80  Ca(OH)2

**For a gas, SI = log10(fugacity). Fugacity = pressure * phi / 1 atm.
  For ideal gases, phi = 1.

------------------
End of simulation.
------------------

------------------------------------
Reading input data for simulation 2.
------------------------------------

	SURFACE
	Hao_wOH 1 600 1
	equilibrate 1
	END
------------------------------------------------------
Beginning of initial surface-composition calculations.
------------------------------------------------------

Surface 1.	

Diffuse Double Layer Surface-Complexation Model

Hao           
	  1.162e-03  Surface charge, eq
	  1.869e-01  sigma, C/m²
	  2.135e-01  psi, V
	 -8.310e+00  -F*psi/RT
	  2.461e-04  exp(-F*psi/RT)
	  6.000e+02  specific area, m²/g
	  6.000e+02  m² for   1.000e+00 g


Hao_w         
	  1.000e+00  moles
	                                   Mole                     Log
	Species               Moles    Fraction    Molality    Molality

	Hao_wOH           5.109e-01       0.511   5.109e-01      -0.292
	Hao_wOH2+         2.451e-01       0.245   2.451e-01      -0.611
	Hao_wO-           2.440e-01       0.244   2.440e-01      -0.613
	Hao_wOCa+         1.431e-06       0.000   1.431e-06      -5.844

------------------
End of simulation.
------------------

------------------------------------
Reading input data for simulation 3.
------------------------------------

