WARNING: Database file from DATABASE keyword is used; command line argument ignored.
   Input file: hard.tests
  Output file: hard.tests.out
Database file: ../database/wateq4f.dat

------------------
Reading data base.
------------------

	SOLUTION_MASTER_SPECIES
	SOLUTION_SPECIES
	PHASES
	EXCHANGE_MASTER_SPECIES
	EXCHANGE_SPECIES
	SURFACE_MASTER_SPECIES
	SURFACE_SPECIES
	RATES
	END
------------------------------------
Reading input data for simulation 1.
------------------------------------

	DATABASE ../database/wateq4f.dat
	SELECTED_OUTPUT 101
	    file                 hard.tests_101.sel
	USER_PUNCH 101
	    headings Mu SC
	    start
	10 PUNCH STR_F$(MU, 20, 12)
	20 PUNCH STR_F$(SC, 20, 10)
	    end
	knobs
		logfile
	PRINT
		status false
	SOLUTION 1 Pure water
	        pH      7.0
	        units   mol/kgw
	        pe      4.0
	        temp    25.0
	PURE_PHASES 3
		Pyrite		0.0	2.0
		Goethite	0.0	2.0
		Siderite	0.0	2.0
		Sphalerite	0.0	2.0
		Smithsonite	0.0	2.0
		Zincite(c)	0.0	2.0
		Calcite		0.0	2.0
		Dolomite	0.0	2.0
		Gypsum		0.0	2.0
		ZnCO3:H2O	0.0	2.0
		Magnetite	0.0	2.0
		Hematite	0.0	2.0
		Greigite	0.0	2.0
		FeS(ppt)	0.0	2.0
		Mackinawite	0.0	2.0
		Zincosite  	0.0	2.0
		Zn(OH)2-a 	0.0	2.0
		Zn(OH)2-b 	0.0	2.0
		Zn(OH)2-c 	0.0	2.0
		Zn(OH)2-e 	0.0	2.0
		Zn(OH)2-g 	0.0	2.0
		Zn2(OH)2SO4	0.0	2.0
		Zn3O(SO4)2 	0.0	2.0
		Zn4(OH)6SO4	0.0	2.0
		ZnMetal    	0.0	2.0
		ZnO(a)     	0.0	2.0
		ZnS(a)     	0.0	2.0
		ZnSO4:H2O  	0.0	2.0
	END
-------------------------------------------
Beginning of initial solution calculations.
-------------------------------------------

Initial solution 1.	Pure water

-----------------------------Solution composition------------------------------

	Elements           Molality       Moles

	Pure water     

----------------------------Description of solution----------------------------

                                       pH  =   7.000    
                                       pe  =   4.000    
                        Activity of water  =   1.000
                 Ionic strength (mol/kgw)  =   1.001e-07
                       Mass of water (kg)  =   1.000e+00
                 Total alkalinity (eq/kg)  =   1.082e-10
                         Temperature (°C)  =  25.00
                  Electrical balance (eq)  =  -1.082e-10
 Percent error, 100*(Cat-|An|)/(Cat+|An|)  =  -0.05
                               Iterations  =   0
                                  Total H  = 1.110124e+02
                                  Total O  = 5.550622e+01

----------------------------Distribution of species----------------------------

                                               Log       Log       Log    mole V
   Species          Molality    Activity  Molality  Activity     Gamma   cm³/mol

   OH-             1.002e-07   1.001e-07    -6.999    -6.999    -0.000     (0)  
   H+              1.001e-07   1.000e-07    -7.000    -7.000    -0.000      0.00
   H2O             5.551e+01   1.000e+00     1.744     0.000     0.000     18.07
H(0)          1.416e-25
   H2              7.079e-26   7.079e-26   -25.150   -25.150     0.000     (0)  
O(0)          0.000e+00
   O2              0.000e+00   0.000e+00   -42.080   -42.080     0.000     (0)  

------------------------------Saturation indices-------------------------------

  Phase               SI** log IAP   log K(298 K,   1 atm)

  H2(g)           -22.00    -25.15   -3.15  H2
  H2O(g)           -1.51      0.00    1.51  H2O
  O2(g)           -39.19    -42.08   -2.89  O2

**For a gas, SI = log10(fugacity). Fugacity = pressure * phi / 1 atm.
  For ideal gases, phi = 1.

-----------------------------------------
Beginning of batch-reaction calculations.
-----------------------------------------

Reaction step 1.

Using solution 1.	Pure water
Using pure phase assemblage 3.	

-------------------------------Phase assemblage--------------------------------

                                                      Moles in assemblage
Phase               SI  log IAP  log K(T, P)   Initial       Final       Delta

Calcite          -3.34   -11.82     -8.48    2.000e+00           0  -2.000e+00
Dolomite         -3.91   -21.00    -17.09    2.000e+00           0  -2.000e+00
FeS(ppt)        -12.46   -16.37     -3.92    2.000e+00           0  -2.000e+00
Goethite         -1.02    -2.02     -1.00    2.000e+00           0  -2.000e+00
Greigite        -41.62   -86.65    -45.03    2.000e+00           0  -2.000e+00
Gypsum            0.00    -4.58     -4.58    2.000e+00   5.996e+00   3.996e+00
Hematite          0.00    -4.01     -4.01    2.000e+00   1.300e+01   1.100e+01
Mackinawite     -11.72   -16.37     -4.65    2.000e+00           0  -2.000e+00
Magnetite        -2.03     1.71      3.74    2.000e+00           0  -2.000e+00
Pyrite           -9.39   -27.87    -18.48    2.000e+00           0  -2.000e+00
Siderite         -4.10   -14.99    -10.89    2.000e+00           0  -2.000e+00
Smithsonite      -0.24   -10.24    -10.00    2.000e+00           0  -2.000e+00
Sphalerite        0.00   -11.62    -11.62    2.000e+00   2.150e+01   1.950e+01
Zincite(c)       -0.67    10.47     11.14    2.000e+00           0  -2.000e+00
Zincosite        -5.96    -2.95      3.01    2.000e+00           0  -2.000e+00
Zn(OH)2-a        -2.00    10.45     12.45    2.000e+00           0  -2.000e+00
Zn(OH)2-b        -1.30    10.45     11.75    2.000e+00           0  -2.000e+00
Zn(OH)2-c        -1.75    10.45     12.20    2.000e+00           0  -2.000e+00
Zn(OH)2-e        -1.05    10.45     11.50    2.000e+00           0  -2.000e+00
Zn(OH)2-g        -1.26    10.45     11.71    2.000e+00           0  -2.000e+00
Zn2(OH)2SO4       0.00     7.50      7.50    2.000e+00   2.294e+00   2.943e-01
Zn3O(SO4)2      -14.45     4.57     19.02    2.000e+00           0  -2.000e+00
Zn4(OH)6SO4       0.00    28.40     28.40    2.000e+00   1.902e+00  -9.803e-02
ZnCO3:H2O         0.00   -10.26    -10.26    2.000e+00   1.200e+01   1.000e+01
ZnMetal         -25.88    -0.12     25.76    2.000e+00           0  -2.000e+00
ZnO(a)           -0.84    10.47     11.31    2.000e+00           0  -2.000e+00
ZnS(a)           -2.57   -11.62     -9.05    2.000e+00           0  -2.000e+00
ZnSO4:H2O        -2.40    -2.97     -0.57    2.000e+00           0  -2.000e+00

-----------------------------Solution composition------------------------------

	Elements           Molality       Moles

	C                 4.880e-04   4.441e-04
	Ca                4.886e-03   4.447e-03
	Fe                4.121e-06   3.750e-06
	Mg                2.198e+00   2.000e+00
	S                 2.536e+00   2.308e+00
	Zn                3.339e-01   3.039e-01

----------------------------Description of solution----------------------------

                                       pH  =   6.099      Charge balance
                                       pe  =  -0.791      Adjusted to redox equilibrium
                        Activity of water  =   0.947
                 Ionic strength (mol/kgw)  =   2.483e+00
                       Mass of water (kg)  =   9.101e-01
                 Total alkalinity (eq/kg)  =   4.575e-04
                       Total CO2 (mol/kg)  =   4.880e-04
                         Temperature (°C)  =  25.00
                  Electrical balance (eq)  =  -1.236e-10
 Percent error, 100*(Cat-|An|)/(Cat+|An|)  =  -0.00
                               Iterations  =  23
                                  Total H  = 1.010306e+02
                                  Total O  = 5.974899e+01

----------------------------Distribution of species----------------------------

                                               Log       Log       Log    mole V
   Species          Molality    Activity  Molality  Activity     Gamma   cm³/mol

   H+              1.105e-06   7.970e-07    -5.957    -6.099    -0.142      0.00
   OH-             2.298e-08   1.190e-08    -7.639    -7.924    -0.286     (0)  
   H2O             5.551e+01   9.474e-01     1.744    -0.023     0.000     18.07
C(-4)         4.959e-23
   CH4             4.959e-23   8.785e-23   -22.305   -22.056     0.248     (0)  
C(4)          4.880e-04
   MgHCO3+         2.412e-04   1.320e-04    -3.618    -3.879    -0.262     (0)  
   ZnHCO3+         1.061e-04   1.241e-04    -3.974    -3.906     0.068     (0)  
   HCO3-           8.049e-05   4.943e-05    -4.094    -4.306    -0.212     (0)  
   CO2             5.277e-05   9.348e-05    -4.278    -4.029     0.248     (0)  
   ZnCO3           6.533e-06   1.157e-05    -5.185    -4.937     0.248     (0)  
   CaHCO3+         5.142e-07   3.277e-07    -6.289    -6.485    -0.196     (0)  
   MgCO3           3.576e-07   6.335e-07    -6.447    -6.198     0.248     (0)  
   CO3-2           2.045e-08   2.909e-09    -7.689    -8.536    -0.847     (0)  
   FeHCO3+         1.486e-09   1.738e-09    -8.828    -8.760     0.068     (0)  
   CaCO3           1.430e-09   2.533e-09    -8.845    -8.596     0.248     (0)  
   Zn(CO3)2-2      3.848e-10   7.197e-10    -9.415    -9.143     0.272     (0)  
   FeCO3           1.385e-11   2.453e-11   -10.859   -10.610     0.248     (0)  
Ca            4.886e-03
   CaSO4           3.293e-03   5.834e-03    -2.482    -2.234     0.248     (0)  
   Ca+2            1.592e-03   5.197e-04    -2.798    -3.284    -0.486     (0)  
   CaHCO3+         5.142e-07   3.277e-07    -6.289    -6.485    -0.196     (0)  
   CaHSO4+         2.329e-08   2.724e-08    -7.633    -7.565     0.068     (0)  
   CaCO3           1.430e-09   2.533e-09    -8.845    -8.596     0.248     (0)  
   CaOH+           1.609e-10   1.025e-10    -9.793    -9.989    -0.196     (0)  
Fe(2)         4.121e-06
   Fe+2            2.133e-06   3.516e-07    -5.671    -6.454    -0.783     (0)  
   FeSO4           1.986e-06   3.518e-06    -5.702    -5.454     0.248     (0)  
   FeHCO3+         1.486e-09   1.738e-09    -8.828    -8.760     0.068     (0)  
   FeOH+           2.214e-10   1.322e-10    -9.655    -9.879    -0.224     (0)  
   FeHSO4+         1.576e-11   1.843e-11   -10.803   -10.735     0.068     (0)  
   FeCO3           1.385e-11   2.453e-11   -10.859   -10.610     0.248     (0)  
   Fe(OH)2         7.549e-16   1.337e-15   -15.122   -14.874     0.248     (0)  
   Fe(OH)3-        9.893e-20   5.907e-20   -19.005   -19.229    -0.224     (0)  
   Fe(HS)2         1.641e-30   2.906e-30   -29.785   -29.537     0.248     (0)  
   Fe(HS)3-        0.000e+00   0.000e+00   -43.584   -43.516     0.068     (0)  
Fe(3)         2.852e-14
   Fe(OH)2+        2.676e-14   1.643e-14   -13.573   -13.784    -0.212     (0)  
   Fe(OH)3         1.421e-15   2.517e-15   -14.848   -14.599     0.248     (0)  
   FeOH+2          3.285e-16   4.174e-17   -15.483   -16.379    -0.896     (0)  
   FeSO4+          5.619e-18   3.355e-18   -17.250   -17.474    -0.224     (0)  
   Fe(OH)4-        4.443e-18   2.728e-18   -17.352   -17.564    -0.212     (0)  
   Fe(SO4)2-       3.531e-18   4.130e-18   -17.452   -17.384     0.068     (0)  
   Fe+3            1.032e-19   5.439e-21   -18.986   -20.265    -1.278     (0)  
   FeHSO4+2        3.829e-24   7.160e-24   -23.417   -23.145     0.272     (0)  
   Fe2(OH)2+4      3.835e-33   4.690e-32   -32.416   -31.329     1.087     (0)  
   Fe3(OH)4+5      0.000e+00   0.000e+00   -44.492   -42.793     1.699     (0)  
H(0)          1.935e-14
   H2              9.674e-15   1.714e-14   -14.014   -13.766     0.248     (0)  
Mg            2.198e+00
   MgSO4           1.699e+00   3.010e+00     0.230     0.479     0.248     (0)  
   Mg+2            4.981e-01   2.282e-01    -0.303    -0.642    -0.339     (0)  
   MgHCO3+         2.412e-04   1.320e-04    -3.618    -3.879    -0.262     (0)  
   MgOH+           1.505e-06   9.851e-07    -5.822    -6.007    -0.184     (0)  
   MgCO3           3.576e-07   6.335e-07    -6.447    -6.198     0.248     (0)  
O(0)          0.000e+00
   O2              0.000e+00   0.000e+00   -65.143   -64.895     0.248     (0)  
S(-2)         5.659e-16
   H2S             3.788e-16   6.711e-16   -15.422   -15.173     0.248     (0)  
   HS-             1.860e-16   9.631e-17   -15.731   -16.016    -0.286     (0)  
   Zn(HS)2         9.094e-20   1.611e-19   -19.041   -18.793     0.248     (0)  
   S5-2            8.570e-20   3.071e-20   -19.067   -19.513    -0.446     (0)  
   S4-2            5.939e-20   1.792e-20   -19.226   -19.747    -0.521     (0)  
   S6-2            3.900e-20   1.589e-20   -19.409   -19.799    -0.390     (0)  
   S-2             1.149e-22   1.460e-23   -21.940   -22.836    -0.896     (0)  
   S3-2            2.664e-23   6.313e-24   -22.574   -23.200    -0.625     (0)  
   S2-2            1.953e-24   3.583e-25   -23.709   -24.446    -0.737     (0)  
   Fe(HS)2         1.641e-30   2.906e-30   -29.785   -29.537     0.248     (0)  
   Zn(HS)3-        1.918e-34   2.242e-34   -33.717   -33.649     0.068     (0)  
   Fe(HS)3-        0.000e+00   0.000e+00   -43.584   -43.516     0.068     (0)  
S(6)          2.536e+00
   MgSO4           1.699e+00   3.010e+00     0.230     0.479     0.248     (0)  
   SO4-2           5.566e-01   5.626e-02    -0.254    -1.250    -0.995     (0)  
   ZnSO4           1.485e-01   2.630e-01    -0.828    -0.580     0.248     (0)  
   Zn(SO4)2-2      6.432e-02   1.203e-01    -1.192    -0.920     0.272     (0)  
   CaSO4           3.293e-03   5.834e-03    -2.482    -2.234     0.248     (0)  
   HSO4-           7.600e-06   4.359e-06    -5.119    -5.361    -0.241     (0)  
   FeSO4           1.986e-06   3.518e-06    -5.702    -5.454     0.248     (0)  
   CaHSO4+         2.329e-08   2.724e-08    -7.633    -7.565     0.068     (0)  
   FeHSO4+         1.576e-11   1.843e-11   -10.803   -10.735     0.068     (0)  
   FeSO4+          5.619e-18   3.355e-18   -17.250   -17.474    -0.224     (0)  
   Fe(SO4)2-       3.531e-18   4.130e-18   -17.452   -17.384     0.068     (0)  
   FeHSO4+2        3.829e-24   7.160e-24   -23.417   -23.145     0.272     (0)  
Zn            3.339e-01
   ZnSO4           1.485e-01   2.630e-01    -0.828    -0.580     0.248     (0)  
   Zn+2            1.210e-01   1.994e-02    -0.917    -1.700    -0.783     (0)  
   Zn(SO4)2-2      6.432e-02   1.203e-01    -1.192    -0.920     0.272     (0)  
   ZnHCO3+         1.061e-04   1.241e-04    -3.974    -3.906     0.068     (0)  
   ZnOH+           2.223e-05   2.600e-05    -4.653    -4.585     0.068     (0)  
   ZnCO3           6.533e-06   1.157e-05    -5.185    -4.937     0.248     (0)  
   Zn(OH)2         2.003e-07   3.548e-07    -6.698    -6.450     0.248     (0)  
   Zn(CO3)2-2      3.848e-10   7.197e-10    -9.415    -9.143     0.272     (0)  
   Zn(OH)3-        1.141e-12   1.334e-12   -11.943   -11.875     0.068     (0)  
   Zn(OH)4-2       1.344e-19   2.513e-19   -18.872   -18.600     0.272     (0)  
   Zn(HS)2         9.094e-20   1.611e-19   -19.041   -18.793     0.248     (0)  
   Zn(HS)3-        1.918e-34   2.242e-34   -33.717   -33.649     0.068     (0)  

------------------------------Saturation indices-------------------------------

  Phase               SI** log IAP   log K(298 K,   1 atm)

  Anhydrite        -0.17     -4.53   -4.36  CaSO4
  Aragonite        -3.48    -11.82   -8.34  CaCO3
  Artinite         -7.34      2.26    9.60  MgCO3:Mg(OH)2:3H2O
  Bianchite        -1.33     -3.09   -1.76  ZnSO4:6H2O
  Brucite          -5.33     11.51   16.84  Mg(OH)2
  Calcite          -3.34    -11.82   -8.48  CaCO3
  CH4(g)          -19.20    -22.06   -2.86  CH4
  CO2(g)           -2.56     -4.03   -1.47  CO2
  Dolomite         -3.91    -21.00  -17.09  CaMg(CO3)2
  Dolomite(d)      -4.46    -21.00  -16.54  CaMg(CO3)2
  Epsomite          0.08     -2.06   -2.14  MgSO4:7H2O
  Fe(OH)3(a)       -6.93     -2.04    4.89  Fe(OH)3
  Fe3(OH)8        -18.60      1.62   20.22  Fe3(OH)8
  FeS(ppt)        -12.46    -16.37   -3.92  FeS
  Goethite         -1.02     -2.02   -1.00  FeOOH
  Goslarite        -1.15     -3.11   -1.96  ZnSO4:7H2O
  Greigite        -41.62    -86.65  -45.03  Fe3S4
  Gypsum            0.00     -4.58   -4.58  CaSO4:2H2O
  H2(g)           -10.62    -13.77   -3.15  H2
  H2O(g)           -1.53     -0.02    1.51  H2O
  H2S(g)          -14.18    -15.17   -1.00  H2S
  Hematite          0.00     -4.01   -4.01  Fe2O3
  Huntite          -9.39    -39.35  -29.97  CaMg3(CO3)4
  Hydromagnesite  -16.54    -25.30   -8.76  Mg5(CO3)4(OH)2:4H2O
  JarositeH       -27.57    -32.96   -5.39  (H3O)Fe3(SO4)2(OH)6
  Mackinawite     -11.72    -16.37   -4.65  FeS
  Maghemite       -10.39     -4.01    6.39  Fe2O3
  Magnesite        -1.15     -9.18   -8.03  MgCO3
  Magnetite        -2.03      1.71    3.74  Fe3O4
  Melanterite      -5.66     -7.87   -2.21  FeSO4:7H2O
  Nesquehonite     -3.63     -9.25   -5.62  MgCO3:3H2O
  O2(g)           -62.00    -64.89   -2.89  O2
  Portlandite     -13.93      8.87   22.80  Ca(OH)2
  Pyrite           -9.39    -27.87  -18.48  FeS2
  Siderite         -4.10    -14.99  -10.89  FeCO3
  Siderite(d)(3)   -4.54    -14.99  -10.45  FeCO3
  Smithsonite      -0.24    -10.24  -10.00  ZnCO3
  Sphalerite        0.00    -11.62  -11.62  ZnS
  Sulfur           -9.39    -24.42  -15.03  S
  Wurtzite         -1.94    -11.62   -9.68  ZnS
  Zincite(c)       -0.67     10.47   11.14  ZnO
  Zincosite        -5.96     -2.95    3.01  ZnSO4
  Zn(OH)2-a        -2.00     10.45   12.45  Zn(OH)2
  Zn(OH)2-b        -1.30     10.45   11.75  Zn(OH)2
  Zn(OH)2-c        -1.75     10.45   12.20  Zn(OH)2
  Zn(OH)2-e        -1.05     10.45   11.50  Zn(OH)2
  Zn(OH)2-g        -1.26     10.45   11.71  Zn(OH)2
  Zn2(OH)2SO4       0.00      7.50    7.50  Zn2(OH)2SO4
  Zn3O(SO4)2      -14.45      4.57   19.02  ZnO:2ZnSO4
  Zn4(OH)6SO4       0.00     28.40   28.40  Zn4(OH)6SO4
  ZnCO3:H2O         0.00    -10.26  -10.26  ZnCO3:H2O
  ZnMetal         -25.88     -0.12   25.76  Zn
  ZnO(a)           -0.84     10.47   11.31  ZnO
  ZnS(a)           -2.57    -11.62   -9.05  ZnS
  ZnSO4:H2O        -2.40     -2.97   -0.57  ZnSO4:H2O

**For a gas, SI = log10(fugacity). Fugacity = pressure * phi / 1 atm.
  For ideal gases, phi = 1.

------------------
End of simulation.
------------------

------------------------------------
Reading input data for simulation 2.
------------------------------------

	SOLUTION 1
		units 	mg/L
		pH	5.5
		pe	4.7
		Ca	340.
		Mg	180
		Na	76
		Alkalinity 	140 as Ca0.5(CO3)0.5
		S(6)	3200
		Cl	21.
		Fe	270
		Zn	210
	PURE_PHASES 1
		sphalerite	
		pyrite
	REACTION 1
		CH2O	1.0
		0.03 moles in 3 steps
	END
-------------------------------------------
Beginning of initial solution calculations.
-------------------------------------------

Initial solution 1.	

-----------------------------Solution composition------------------------------

	Elements           Molality       Moles

	Alkalinity        2.810e-03   2.810e-03
	Ca                8.521e-03   8.521e-03
	Cl                5.950e-04   5.950e-04
	Fe                4.856e-03   4.856e-03
	Mg                7.437e-03   7.437e-03
	Na                3.321e-03   3.321e-03
	S(6)              3.346e-02   3.346e-02
	Zn                3.227e-03   3.227e-03

----------------------------Description of solution----------------------------

                                       pH  =   5.500    
                                       pe  =   4.700    
                        Activity of water  =   0.999
                 Ionic strength (mol/kgw)  =   7.415e-02
                       Mass of water (kg)  =   1.000e+00
                    Total carbon (mol/kg)  =   1.552e-02
                       Total CO2 (mol/kg)  =   1.552e-02
                         Temperature (°C)  =  25.00
                  Electrical balance (eq)  =  -1.893e-02
 Percent error, 100*(Cat-|An|)/(Cat+|An|)  = -24.41
                               Iterations  =  10
                                  Total H  = 1.110153e+02
                                  Total O  = 5.567392e+01

----------------------------Distribution of species----------------------------

                                               Log       Log       Log    mole V
   Species          Molality    Activity  Molality  Activity     Gamma   cm³/mol

   H+              3.775e-06   3.162e-06    -5.423    -5.500    -0.077      0.00
   OH-             4.034e-09   3.162e-09    -8.394    -8.500    -0.106     (0)  
   H2O             5.551e+01   9.989e-01     1.744    -0.000     0.000     18.07
C(4)          1.552e-02
   CO2             1.271e-02   1.293e-02    -1.896    -1.888     0.007     (0)  
   HCO3-           2.254e-03   1.817e-03    -2.647    -2.741    -0.094     (0)  
   FeHCO3+         2.673e-04   2.134e-04    -3.573    -3.671    -0.098     (0)  
   ZnHCO3+         1.812e-04   1.446e-04    -3.742    -3.840    -0.098     (0)  
   CaHCO3+         5.814e-05   4.721e-05    -4.236    -4.326    -0.090     (0)  
   MgHCO3+         4.527e-05   3.577e-05    -4.344    -4.447    -0.102     (0)  
   ZnCO3           3.342e-06   3.399e-06    -5.476    -5.469     0.007     (0)  
   NaHCO3          2.550e-06   2.594e-06    -5.593    -5.586     0.007     (0)  
   FeCO3           7.464e-07   7.592e-07    -6.127    -6.120     0.007     (0)  
   CaCO3           9.041e-08   9.197e-08    -7.044    -7.036     0.007     (0)  
   CO3-2           6.383e-08   2.694e-08    -7.195    -7.570    -0.375     (0)  
   MgCO3           4.253e-08   4.326e-08    -7.371    -7.364     0.007     (0)  
   Zn(CO3)2-2      4.820e-09   1.958e-09    -8.317    -8.708    -0.391     (0)  
   NaCO3-          1.581e-09   1.274e-09    -8.801    -8.895    -0.094     (0)  
Ca            8.521e-03
   Ca+2            4.795e-03   2.038e-03    -2.319    -2.691    -0.372     (0)  
   CaSO4           3.668e-03   3.731e-03    -2.436    -2.428     0.007     (0)  
   CaHCO3+         5.814e-05   4.721e-05    -4.236    -4.326    -0.090     (0)  
   CaCO3           9.041e-08   9.197e-08    -7.044    -7.036     0.007     (0)  
   CaHSO4+         8.658e-08   6.912e-08    -7.063    -7.160    -0.098     (0)  
   CaOH+           1.315e-10   1.068e-10    -9.881    -9.971    -0.090     (0)  
Cl            5.950e-04
   Cl-             5.930e-04   4.660e-04    -3.227    -3.332    -0.105     (0)  
   ZnCl+           1.004e-06   7.932e-07    -5.998    -6.101    -0.102     (0)  
   FeCl+           9.426e-07   7.557e-07    -6.026    -6.122    -0.096     (0)  
   ZnOHCl          3.030e-09   3.083e-09    -8.519    -8.511     0.007     (0)  
   ZnCl2           3.805e-10   3.871e-10    -9.420    -9.412     0.007     (0)  
   ZnCl3-          2.562e-13   2.024e-13   -12.592   -12.694    -0.102     (0)  
   FeCl+2          1.915e-13   7.913e-14   -12.718   -13.102    -0.384     (0)  
   FeCl2+          2.063e-16   1.647e-16   -15.685   -15.783    -0.098     (0)  
   ZnCl4-2         1.144e-16   4.727e-17   -15.942   -16.325    -0.384     (0)  
   FeCl3           7.547e-21   7.677e-21   -20.122   -20.115     0.007     (0)  
Fe(2)         4.855e-03
   Fe+2            2.701e-03   1.175e-03    -2.569    -2.930    -0.362     (0)  
   FeSO4           1.885e-03   1.917e-03    -2.725    -2.717     0.007     (0)  
   FeHCO3+         2.673e-04   2.134e-04    -3.573    -3.671    -0.098     (0)  
   FeCl+           9.426e-07   7.557e-07    -6.026    -6.122    -0.096     (0)  
   FeCO3           7.464e-07   7.592e-07    -6.127    -6.120     0.007     (0)  
   FeOH+           1.464e-07   1.173e-07    -6.835    -6.931    -0.096     (0)  
   FeHSO4+         4.992e-08   3.985e-08    -7.302    -7.400    -0.098     (0)  
   Fe(OH)2         3.102e-13   3.155e-13   -12.508   -12.501     0.007     (0)  
   Fe(OH)3-        4.618e-18   3.703e-18   -17.336   -17.431    -0.096     (0)  
Fe(3)         1.565e-06
   Fe(OH)2+        1.488e-06   1.199e-06    -5.827    -5.921    -0.094     (0)  
   Fe(OH)3         4.798e-08   4.881e-08    -7.319    -7.311     0.007     (0)  
   FeOH+2          2.775e-08   1.147e-08    -7.557    -7.941    -0.384     (0)  
   FeSO4+          7.057e-10   5.658e-10    -9.151    -9.247    -0.096     (0)  
   Fe(SO4)2-       1.423e-10   1.136e-10    -9.847    -9.945    -0.098     (0)  
   Fe+3            2.770e-11   5.623e-12   -10.558   -11.250    -0.692     (0)  
   Fe(OH)4-        1.745e-11   1.406e-11   -10.758   -10.852    -0.094     (0)  
   FeCl+2          1.915e-13   7.913e-14   -12.718   -13.102    -0.384     (0)  
   Fe2(OH)2+4      1.300e-13   3.540e-15   -12.886   -14.451    -1.565     (0)  
   FeHSO4+2        1.180e-14   4.791e-15   -13.928   -14.320    -0.391     (0)  
   Fe3(OH)4+5      2.473e-16   8.870e-19   -15.607   -18.052    -2.445     (0)  
   FeCl2+          2.063e-16   1.647e-16   -15.685   -15.783    -0.098     (0)  
   FeCl3           7.547e-21   7.677e-21   -20.122   -20.115     0.007     (0)  
H(0)          5.541e-24
   H2              2.771e-24   2.818e-24   -23.557   -23.550     0.007     (0)  
Mg            7.437e-03
   Mg+2            3.833e-03   1.683e-03    -2.416    -2.774    -0.358     (0)  
   MgSO4           3.559e-03   3.620e-03    -2.449    -2.441     0.007     (0)  
   MgHCO3+         4.527e-05   3.577e-05    -4.344    -4.447    -0.102     (0)  
   MgCO3           4.253e-08   4.326e-08    -7.371    -7.364     0.007     (0)  
   MgOH+           2.362e-09   1.930e-09    -8.627    -8.714    -0.088     (0)  
Na            3.321e-03
   Na+             3.173e-03   2.540e-03    -2.499    -2.595    -0.097     (0)  
   NaSO4-          1.449e-04   1.168e-04    -3.839    -3.933    -0.094     (0)  
   NaHCO3          2.550e-06   2.594e-06    -5.593    -5.586     0.007     (0)  
   NaCO3-          1.581e-09   1.274e-09    -8.801    -8.895    -0.094     (0)  
O(0)          0.000e+00
   O2              0.000e+00   0.000e+00   -45.288   -45.281     0.007     (0)  
S(6)          3.346e-02
   SO4-2           2.236e-02   9.177e-03    -1.650    -2.037    -0.387     (0)  
   CaSO4           3.668e-03   3.731e-03    -2.436    -2.428     0.007     (0)  
   MgSO4           3.559e-03   3.620e-03    -2.449    -2.441     0.007     (0)  
   FeSO4           1.885e-03   1.917e-03    -2.725    -2.717     0.007     (0)  
   ZnSO4           1.337e-03   1.360e-03    -2.874    -2.866     0.007     (0)  
   Zn(SO4)2-2      2.498e-04   1.015e-04    -3.602    -3.994    -0.391     (0)  
   NaSO4-          1.449e-04   1.168e-04    -3.839    -3.933    -0.094     (0)  
   HSO4-           3.544e-06   2.822e-06    -5.450    -5.550    -0.099     (0)  
   CaHSO4+         8.658e-08   6.912e-08    -7.063    -7.160    -0.098     (0)  
   FeHSO4+         4.992e-08   3.985e-08    -7.302    -7.400    -0.098     (0)  
   FeSO4+          7.057e-10   5.658e-10    -9.151    -9.247    -0.096     (0)  
   Fe(SO4)2-       1.423e-10   1.136e-10    -9.847    -9.945    -0.098     (0)  
   FeHSO4+2        1.180e-14   4.791e-15   -13.928   -14.320    -0.391     (0)  
Zn            3.227e-03
   Zn+2            1.454e-03   6.324e-04    -2.838    -3.199    -0.362     (0)  
   ZnSO4           1.337e-03   1.360e-03    -2.874    -2.866     0.007     (0)  
   Zn(SO4)2-2      2.498e-04   1.015e-04    -3.602    -3.994    -0.391     (0)  
   ZnHCO3+         1.812e-04   1.446e-04    -3.742    -3.840    -0.098     (0)  
   ZnCO3           3.342e-06   3.399e-06    -5.476    -5.469     0.007     (0)  
   ZnCl+           1.004e-06   7.932e-07    -5.998    -6.101    -0.102     (0)  
   ZnOH+           2.744e-07   2.190e-07    -6.562    -6.660    -0.098     (0)  
   Zn(CO3)2-2      4.820e-09   1.958e-09    -8.317    -8.708    -0.391     (0)  
   ZnOHCl          3.030e-09   3.083e-09    -8.519    -8.511     0.007     (0)  
   Zn(OH)2         7.809e-10   7.943e-10    -9.107    -9.100     0.007     (0)  
   ZnCl2           3.805e-10   3.871e-10    -9.420    -9.412     0.007     (0)  
   ZnCl3-          2.562e-13   2.024e-13   -12.592   -12.694    -0.102     (0)  
   Zn(OH)3-        9.939e-16   7.935e-16   -15.003   -15.100    -0.098     (0)  
   ZnCl4-2         1.144e-16   4.727e-17   -15.942   -16.325    -0.384     (0)  
   Zn(OH)4-2       9.779e-23   3.972e-23   -22.010   -22.401    -0.391     (0)  

------------------------------Saturation indices-------------------------------

  Phase               SI** log IAP   log K(298 K,   1 atm)

  Anhydrite        -0.37     -4.73   -4.36  CaSO4
  Aragonite        -1.92    -10.26   -8.34  CaCO3
  Artinite        -11.72     -2.12    9.60  MgCO3:Mg(OH)2:3H2O
  Bianchite        -3.47     -5.24   -1.76  ZnSO4:6H2O
  Brucite          -8.61      8.23   16.84  Mg(OH)2
  Calcite          -1.78    -10.26   -8.48  CaCO3
  CO2(g)           -0.42     -1.89   -1.47  CO2
  Dolomite         -3.51    -20.60  -17.09  CaMg(CO3)2
  Dolomite(d)      -4.06    -20.60  -16.54  CaMg(CO3)2
  Epsomite         -2.67     -4.81   -2.14  MgSO4:7H2O
  Fe(OH)2.7Cl.3     5.64      2.60   -3.04  Fe(OH)2.7Cl0.3
  Fe(OH)3(a)        0.36      5.25    4.89  Fe(OH)3
  Fe3(OH)8         -1.66     18.57   20.22  Fe3(OH)8
  Goethite          6.25      5.25   -1.00  FeOOH
  Goslarite        -3.28     -5.24   -1.96  ZnSO4:7H2O
  Gypsum           -0.15     -4.73   -4.58  CaSO4:2H2O
  H2(g)           -20.40    -23.55   -3.15  H2
  H2O(g)           -1.51     -0.00    1.51  H2O
  Halite           -7.51     -5.93    1.58  NaCl
  Hematite         14.51     10.50   -4.01  Fe2O3
  Huntite         -11.32    -41.29  -29.97  CaMg3(CO3)4
  Hydromagnesite  -24.39    -33.15   -8.76  Mg5(CO3)4(OH)2:4H2O
  Jarosite-Na      -2.14     -7.42   -5.28  NaFe3(SO4)2(OH)6
  JarositeH        -4.94    -10.33   -5.39  (H3O)Fe3(SO4)2(OH)6
  Maghemite         4.11     10.50    6.39  Fe2O3
  Magnesite        -2.31    -10.34   -8.03  MgCO3
  Magnetite        14.83     18.57    3.74  Fe3O4
  Melanterite      -2.76     -4.97   -2.21  FeSO4:7H2O
  Mirabilite       -6.12     -7.23   -1.11  Na2SO4:10H2O
  Nahcolite        -4.79     -5.34   -0.55  NaHCO3
  Natron          -11.45    -12.76   -1.31  Na2CO3:10H2O
  Nesquehonite     -4.72    -10.35   -5.62  MgCO3:3H2O
  O2(g)           -42.39    -45.28   -2.89  O2
  Portlandite     -14.49      8.31   22.80  Ca(OH)2
  Siderite          0.39    -10.50  -10.89  FeCO3
  Siderite(d)(3)   -0.05    -10.50  -10.45  FeCO3
  Smithsonite      -0.77    -10.77  -10.00  ZnCO3
  Thenardite       -7.05     -7.23   -0.18  Na2SO4
  Thermonatrite   -12.89    -12.76    0.12  Na2CO3:H2O
  Trona           -17.30    -18.10   -0.80  NaHCO3:Na2CO3:2H2O
  Zincite(c)       -3.34      7.80   11.14  ZnO
  Zincosite        -8.25     -5.24    3.01  ZnSO4
  Zn(OH)2-a        -4.65      7.80   12.45  Zn(OH)2
  Zn(OH)2-b        -3.95      7.80   11.75  Zn(OH)2
  Zn(OH)2-c        -4.40      7.80   12.20  Zn(OH)2
  Zn(OH)2-e        -3.70      7.80   11.50  Zn(OH)2
  Zn(OH)2-g        -3.91      7.80   11.71  Zn(OH)2
  Zn2(OH)2SO4      -4.94      2.56    7.50  Zn2(OH)2SO4
  Zn2(OH)3Cl       -8.43      6.77   15.20  Zn2(OH)3Cl
  Zn3O(SO4)2      -21.69     -2.67   19.02  ZnO:2ZnSO4
  Zn4(OH)6SO4     -10.24     18.16   28.40  Zn4(OH)6SO4
  Zn5(OH)8Cl2     -17.16     21.34   38.50  Zn5(OH)8Cl2
  ZnCl2           -16.89     -9.86    7.03  ZnCl2
  ZnCO3:H2O        -0.51    -10.77  -10.26  ZnCO3:H2O
  ZnMetal         -38.36    -12.60   25.76  Zn
  ZnO(a)           -3.51      7.80   11.31  ZnO
  ZnSO4:H2O        -4.67     -5.24   -0.57  ZnSO4:H2O

**For a gas, SI = log10(fugacity). Fugacity = pressure * phi / 1 atm.
  For ideal gases, phi = 1.

-----------------------------------------
Beginning of batch-reaction calculations.
-----------------------------------------

Reaction step 1.

Using solution 1.	
Using pure phase assemblage 1.	
Using reaction 1.	

Reaction 1.	

	  1.000e-02 moles of the following reaction have been added:

	                 Relative
	Reactant            moles

	CH2O                 1.00000

	                 Relative
	Element             moles
	C                    1.00000
	H                    2.00000
	O                    1.00000

-------------------------------Phase assemblage--------------------------------

                                                      Moles in assemblage
Phase               SI  log IAP  log K(T, P)   Initial       Final       Delta

Pyrite            0.00   -18.48    -18.48    1.000e+01   1.000e+01   1.077e-03
Sphalerite        0.00   -11.62    -11.62    1.000e+01   1.000e+01   3.115e-03

-----------------------------Solution composition------------------------------

	Elements           Molality       Moles

	C                 2.552e-02   2.552e-02
	Ca                8.519e-03   8.521e-03
	Cl                5.949e-04   5.950e-04
	Fe                3.779e-03   3.779e-03
	Mg                7.436e-03   7.437e-03
	Na                3.320e-03   3.321e-03
	S                 2.819e-02   2.819e-02
	Zn                1.118e-04   1.118e-04

----------------------------Description of solution----------------------------

                                       pH  =   5.581      Charge balance
                                       pe  =  -0.757      Adjusted to redox equilibrium
                        Activity of water  =   0.999
                 Ionic strength (mol/kgw)  =   6.555e-02
                       Mass of water (kg)  =   1.000e+00
                 Total alkalinity (eq/kg)  =   4.965e-03
                       Total CO2 (mol/kg)  =   2.552e-02
                         Temperature (°C)  =  25.00
                  Electrical balance (eq)  =  -1.893e-02
 Percent error, 100*(Cat-|An|)/(Cat+|An|)  = -27.04
                               Iterations  =  10
                                  Total H  = 1.110353e+02
                                  Total O  = 5.568392e+01

----------------------------Distribution of species----------------------------

                                               Log       Log       Log    mole V
   Species          Molality    Activity  Molality  Activity     Gamma   cm³/mol

   H+              3.117e-06   2.627e-06    -5.506    -5.581    -0.074      0.00
   OH-             4.802e-09   3.807e-09    -8.319    -8.419    -0.101     (0)  
   H2O             5.551e+01   9.988e-01     1.744    -0.001     0.000     18.07
C(-4)         1.296e-16
   CH4             1.296e-16   1.316e-16   -15.887   -15.881     0.007     (0)  
C(4)          2.552e-02
   CO2             2.055e-02   2.086e-02    -1.687    -1.681     0.007     (0)  
   HCO3-           4.339e-03   3.529e-03    -2.363    -2.452    -0.090     (0)  
   FeHCO3+         4.004e-04   3.225e-04    -3.398    -3.491    -0.094     (0)  
   CaHCO3+         1.177e-04   9.637e-05    -3.929    -4.016    -0.087     (0)  
   MgHCO3+         9.159e-05   7.314e-05    -4.038    -4.136    -0.098     (0)  
   ZnHCO3+         1.221e-05   9.838e-06    -4.913    -5.007    -0.094     (0)  
   NaHCO3          5.023e-06   5.100e-06    -5.299    -5.292     0.007     (0)  
   FeCO3           1.360e-06   1.381e-06    -5.866    -5.860     0.007     (0)  
   ZnCO3           2.742e-07   2.784e-07    -6.562    -6.555     0.007     (0)  
   CaCO3           2.226e-07   2.260e-07    -6.652    -6.646     0.007     (0)  
   CO3-2           1.441e-07   6.300e-08    -6.841    -7.201    -0.359     (0)  
   MgCO3           1.049e-07   1.065e-07    -6.979    -6.973     0.007     (0)  
   NaCO3-          3.707e-09   3.015e-09    -8.431    -8.521    -0.090     (0)  
   Zn(CO3)2-2      8.907e-10   3.750e-10    -9.050    -9.426    -0.376     (0)  
Ca            8.519e-03
   Ca+2            4.870e-03   2.141e-03    -2.312    -2.669    -0.357     (0)  
   CaSO4           3.531e-03   3.585e-03    -2.452    -2.446     0.007     (0)  
   CaHCO3+         1.177e-04   9.637e-05    -3.929    -4.016    -0.087     (0)  
   CaCO3           2.226e-07   2.260e-07    -6.652    -6.646     0.007     (0)  
   CaHSO4+         6.849e-08   5.517e-08    -7.164    -7.258    -0.094     (0)  
   CaOH+           1.650e-10   1.351e-10    -9.782    -9.869    -0.087     (0)  
Cl            5.949e-04
   Cl-             5.941e-04   4.720e-04    -3.226    -3.326    -0.100     (0)  
   FeCl+           7.358e-07   5.955e-07    -6.133    -6.225    -0.092     (0)  
   ZnCl+           3.524e-08   2.814e-08    -7.453    -7.551    -0.098     (0)  
   ZnOHCl          1.297e-10   1.316e-10    -9.887    -9.881     0.007     (0)  
   ZnCl2           1.370e-11   1.391e-11   -10.863   -10.857     0.007     (0)  
   ZnCl3-          9.224e-15   7.365e-15   -14.035   -14.133    -0.098     (0)  
   ZnCl4-2         4.063e-18   1.742e-18   -17.391   -17.759    -0.368     (0)  
   FeCl+2          5.081e-19   2.179e-19   -18.294   -18.662    -0.368     (0)  
   FeCl2+          5.703e-22   4.594e-22   -21.244   -21.338    -0.094     (0)  
   FeCl3           2.136e-26   2.168e-26   -25.670   -25.664     0.007     (0)  
Fe(2)         3.779e-03
   Fe+2            2.033e-03   9.139e-04    -2.692    -3.039    -0.347     (0)  
   FeSO4           1.343e-03   1.364e-03    -2.872    -2.865     0.007     (0)  
   FeHCO3+         4.004e-04   3.225e-04    -3.398    -3.491    -0.094     (0)  
   FeCO3           1.360e-06   1.381e-06    -5.866    -5.860     0.007     (0)  
   FeCl+           7.358e-07   5.955e-07    -6.133    -6.225    -0.092     (0)  
   FeOH+           1.358e-07   1.099e-07    -6.867    -6.959    -0.092     (0)  
   FeHSO4+         2.923e-08   2.355e-08    -7.534    -7.628    -0.094     (0)  
   Fe(OH)2         3.503e-13   3.557e-13   -12.456   -12.449     0.007     (0)  
   Fe(OH)3-        6.209e-18   5.025e-18   -17.207   -17.299    -0.092     (0)  
   Fe(HS)2         6.555e-20   6.655e-20   -19.183   -19.177     0.007     (0)  
   Fe(HS)3-        2.571e-30   2.071e-30   -29.590   -29.684    -0.094     (0)  
Fe(3)         6.128e-12
   Fe(OH)2+        5.810e-12   4.725e-12   -11.236   -11.326    -0.090     (0)  
   Fe(OH)3         2.280e-13   2.315e-13   -12.642   -12.636     0.007     (0)  
   FeOH+2          8.751e-14   3.753e-14   -13.058   -13.426    -0.368     (0)  
   FeSO4+          1.738e-15   1.406e-15   -14.760   -14.852    -0.092     (0)  
   Fe(SO4)2-       3.205e-16   2.582e-16   -15.494   -15.588    -0.094     (0)  
   Fe(OH)4-        9.871e-17   8.027e-17   -16.006   -16.095    -0.090     (0)  
   Fe+3            7.131e-17   1.528e-17   -16.147   -16.816    -0.669     (0)  
   FeCl+2          5.081e-19   2.179e-19   -18.294   -18.662    -0.368     (0)  
   FeHSO4+2        2.350e-20   9.892e-21   -19.629   -20.005    -0.376     (0)  
   FeCl2+          5.703e-22   4.594e-22   -21.244   -21.338    -0.094     (0)  
   Fe2(OH)2+4      1.207e-24   3.790e-26   -23.918   -25.421    -1.503     (0)  
   FeCl3           2.136e-26   2.168e-26   -25.670   -25.664     0.007     (0)  
   Fe3(OH)4+5      8.345e-33   3.742e-35   -32.079   -34.427    -2.348     (0)  
H(0)          3.138e-13
   H2              1.569e-13   1.593e-13   -12.804   -12.798     0.007     (0)  
Mg            7.436e-03
   Mg+2            3.911e-03   1.771e-03    -2.408    -2.752    -0.344     (0)  
   MgSO4           3.432e-03   3.485e-03    -2.464    -2.458     0.007     (0)  
   MgHCO3+         9.159e-05   7.314e-05    -4.038    -4.136    -0.098     (0)  
   MgCO3           1.049e-07   1.065e-07    -6.979    -6.973     0.007     (0)  
   MgOH+           2.970e-09   2.446e-09    -8.527    -8.612    -0.084     (0)  
Na            3.320e-03
   Na+             3.182e-03   2.570e-03    -2.497    -2.590    -0.093     (0)  
   NaSO4-          1.329e-04   1.081e-04    -3.876    -3.966    -0.090     (0)  
   NaHCO3          5.023e-06   5.100e-06    -5.299    -5.292     0.007     (0)  
   NaCO3-          3.707e-09   3.015e-09    -8.431    -8.521    -0.090     (0)  
O(0)          0.000e+00
   O2              0.000e+00   0.000e+00   -66.792   -66.785     0.007     (0)  
S(-2)         6.831e-12
   H2S             6.466e-12   6.565e-12   -11.189   -11.183     0.007     (0)  
   HS-             3.606e-13   2.858e-13   -12.443   -12.544    -0.101     (0)  
   Zn(HS)2         1.552e-15   1.576e-15   -14.809   -14.802     0.007     (0)  
   S5-2            5.031e-17   2.765e-17   -16.298   -16.558    -0.260     (0)  
   S4-2            3.100e-17   1.613e-17   -16.509   -16.792    -0.284     (0)  
   S6-2            2.486e-17   1.431e-17   -16.604   -16.844    -0.240     (0)  
   Fe(HS)2         6.555e-20   6.655e-20   -19.183   -19.177     0.007     (0)  
   S-2             3.065e-20   1.314e-20   -19.514   -19.881    -0.368     (0)  
   S3-2            1.167e-20   5.685e-21   -19.933   -20.245    -0.312     (0)  
   S2-2            7.021e-22   3.226e-22   -21.154   -21.491    -0.338     (0)  
   Zn(HS)3-        8.083e-27   6.511e-27   -26.092   -26.186    -0.094     (0)  
   Fe(HS)3-        2.571e-30   2.071e-30   -29.590   -29.684    -0.094     (0)  
S(6)          2.819e-02
   SO4-2           1.969e-02   8.392e-03    -1.706    -2.076    -0.370     (0)  
   CaSO4           3.531e-03   3.585e-03    -2.452    -2.446     0.007     (0)  
   MgSO4           3.432e-03   3.485e-03    -2.464    -2.458     0.007     (0)  
   FeSO4           1.343e-03   1.364e-03    -2.872    -2.865     0.007     (0)  
   NaSO4-          1.329e-04   1.081e-04    -3.876    -3.966    -0.090     (0)  
   ZnSO4           4.291e-05   4.357e-05    -4.367    -4.361     0.007     (0)  
   Zn(SO4)2-2      7.059e-06   2.972e-06    -5.151    -5.527    -0.376     (0)  
   HSO4-           2.665e-06   2.143e-06    -5.574    -5.669    -0.095     (0)  
   CaHSO4+         6.849e-08   5.517e-08    -7.164    -7.258    -0.094     (0)  
   FeHSO4+         2.923e-08   2.355e-08    -7.534    -7.628    -0.094     (0)  
   FeSO4+          1.738e-15   1.406e-15   -14.760   -14.852    -0.092     (0)  
   Fe(SO4)2-       3.205e-16   2.582e-16   -15.494   -15.588    -0.094     (0)  
   FeHSO4+2        2.350e-20   9.892e-21   -19.629   -20.005    -0.376     (0)  
Zn            1.118e-04
   Zn+2            4.926e-05   2.215e-05    -4.308    -4.655    -0.347     (0)  
   ZnSO4           4.291e-05   4.357e-05    -4.367    -4.361     0.007     (0)  
   ZnHCO3+         1.221e-05   9.838e-06    -4.913    -5.007    -0.094     (0)  
   Zn(SO4)2-2      7.059e-06   2.972e-06    -5.151    -5.527    -0.376     (0)  
   ZnCO3           2.742e-07   2.784e-07    -6.562    -6.555     0.007     (0)  
   ZnCl+           3.524e-08   2.814e-08    -7.453    -7.551    -0.098     (0)  
   ZnOH+           1.146e-08   9.234e-09    -7.941    -8.035    -0.094     (0)  
   Zn(CO3)2-2      8.907e-10   3.750e-10    -9.050    -9.426    -0.376     (0)  
   ZnOHCl          1.297e-10   1.316e-10    -9.887    -9.881     0.007     (0)  
   Zn(OH)2         3.971e-11   4.031e-11   -10.401   -10.395     0.007     (0)  
   ZnCl2           1.370e-11   1.391e-11   -10.863   -10.857     0.007     (0)  
   ZnCl3-          9.224e-15   7.365e-15   -14.035   -14.133    -0.098     (0)  
   Zn(HS)2         1.552e-15   1.576e-15   -14.809   -14.802     0.007     (0)  
   Zn(OH)3-        6.018e-17   4.848e-17   -16.221   -16.314    -0.094     (0)  
   ZnCl4-2         4.063e-18   1.742e-18   -17.391   -17.759    -0.368     (0)  
   Zn(OH)4-2       6.940e-24   2.922e-24   -23.159   -23.534    -0.376     (0)  
   Zn(HS)3-        8.083e-27   6.511e-27   -26.092   -26.186    -0.094     (0)  

------------------------------Saturation indices-------------------------------

  Phase               SI** log IAP   log K(298 K,   1 atm)

  Anhydrite        -0.38     -4.75   -4.36  CaSO4
  Aragonite        -1.53     -9.87   -8.34  CaCO3
  Artinite        -11.15     -1.55    9.60  MgCO3:Mg(OH)2:3H2O
  Bianchite        -4.97     -6.73   -1.76  ZnSO4:6H2O
  Brucite          -8.43      8.41   16.84  Mg(OH)2
  Calcite          -1.39     -9.87   -8.48  CaCO3
  CH4(g)          -13.02    -15.88   -2.86  CH4
  CO2(g)           -0.21     -1.68   -1.47  CO2
  Dolomite         -2.73    -19.82  -17.09  CaMg(CO3)2
  Dolomite(d)      -3.28    -19.82  -16.54  CaMg(CO3)2
  Epsomite         -2.69     -4.83   -2.14  MgSO4:7H2O
  Fe(OH)2.7Cl.3     0.29     -2.75   -3.04  Fe(OH)2.7Cl0.3
  Fe(OH)3(a)       -4.97     -0.08    4.89  Fe(OH)3
  Fe3(OH)8        -12.25      7.97   20.22  Fe3(OH)8
  FeS(ppt)         -6.09    -10.00   -3.92  FeS
  Goethite          0.92     -0.08   -1.00  FeOOH
  Goslarite        -4.77     -6.73   -1.96  ZnSO4:7H2O
  Greigite        -19.49    -64.52  -45.03  Fe3S4
  Gypsum           -0.17     -4.75   -4.58  CaSO4:2H2O
  H2(g)            -9.65    -12.80   -3.15  H2
  H2O(g)           -1.51     -0.00    1.51  H2O
  H2S(g)          -10.19    -11.18   -1.00  H2S
  Halite           -7.50     -5.92    1.58  NaCl
  Hematite          3.86     -0.15   -4.01  Fe2O3
  Huntite          -9.76    -39.73  -29.97  CaMg3(CO3)4
  Hydromagnesite  -22.64    -31.40   -8.76  Mg5(CO3)4(OH)2:4H2O
  Jarosite-Na     -18.43    -23.71   -5.28  NaFe3(SO4)2(OH)6
  JarositeH       -21.31    -26.70   -5.39  (H3O)Fe3(SO4)2(OH)6
  Mackinawite      -5.35    -10.00   -4.65  FeS
  Maghemite        -6.54     -0.15    6.39  Fe2O3
  Magnesite        -1.92     -9.95   -8.03  MgCO3
  Magnetite         4.24      7.97    3.74  Fe3O4
  Melanterite      -2.91     -5.12   -2.21  FeSO4:7H2O
  Mirabilite       -6.15     -7.26   -1.11  Na2SO4:10H2O
  Nahcolite        -4.49     -5.04   -0.55  NaHCO3
  Natron          -11.07    -12.39   -1.31  Na2CO3:10H2O
  Nesquehonite     -4.33     -9.95   -5.62  MgCO3:3H2O
  O2(g)           -63.89    -66.79   -2.89  O2
  Portlandite     -14.31      8.49   22.80  Ca(OH)2
  Pyrite            0.00    -18.48  -18.48  FeS2
  Siderite          0.65    -10.24  -10.89  FeCO3
  Siderite(d)(3)    0.21    -10.24  -10.45  FeCO3
  Smithsonite      -1.86    -11.86  -10.00  ZnCO3
  Sphalerite        0.00    -11.62  -11.62  ZnS
  Sulfur           -6.37    -21.39  -15.03  S
  Thenardite       -7.08     -7.26   -0.18  Na2SO4
  Thermonatrite   -12.51    -12.38    0.12  Na2CO3:H2O
  Trona           -16.63    -17.42   -0.80  NaHCO3:Na2CO3:2H2O
  Wurtzite         -1.94    -11.62   -9.68  ZnS
  Zincite(c)       -4.63      6.51   11.14  ZnO
  Zincosite        -9.74     -6.73    3.01  ZnSO4
  Zn(OH)2-a        -5.94      6.51   12.45  Zn(OH)2
  Zn(OH)2-b        -5.24      6.51   11.75  Zn(OH)2
  Zn(OH)2-c        -5.69      6.51   12.20  Zn(OH)2
  Zn(OH)2-e        -4.99      6.51   11.50  Zn(OH)2
  Zn(OH)2-g        -5.20      6.51   11.71  Zn(OH)2
  Zn2(OH)2SO4      -7.73     -0.23    7.50  Zn2(OH)2SO4
  Zn2(OH)3Cl      -11.10      4.10   15.20  Zn2(OH)3Cl
  Zn3O(SO4)2      -25.98     -6.96   19.02  ZnO:2ZnSO4
  Zn4(OH)6SO4     -15.61     12.79   28.40  Zn4(OH)6SO4
  Zn5(OH)8Cl2     -23.78     14.72   38.50  Zn5(OH)8Cl2
  ZnCl2           -18.34    -11.31    7.03  ZnCl2
  ZnCO3:H2O        -1.60    -11.86  -10.26  ZnCO3:H2O
  ZnMetal         -28.90     -3.14   25.76  Zn
  ZnO(a)           -4.80      6.51   11.31  ZnO
  ZnS(a)           -2.57    -11.62   -9.05  ZnS
  ZnSO4:H2O        -6.16     -6.73   -0.57  ZnSO4:H2O

**For a gas, SI = log10(fugacity). Fugacity = pressure * phi / 1 atm.
  For ideal gases, phi = 1.

Reaction step 2.

Using solution 1.	
Using pure phase assemblage 1.	
Using reaction 1.	

Reaction 1.	

	  2.000e-02 moles of the following reaction have been added:

	                 Relative
	Reactant            moles

	CH2O                 1.00000

	                 Relative
	Element             moles
	C                    1.00000
	H                    2.00000
	O                    1.00000

-------------------------------Phase assemblage--------------------------------

                                                      Moles in assemblage
Phase               SI  log IAP  log K(T, P)   Initial       Final       Delta

Pyrite            0.00   -18.48    -18.48    1.000e+01   1.000e+01   3.884e-03
Sphalerite        0.00   -11.62    -11.62    1.000e+01   1.000e+01   3.202e-03

-----------------------------Solution composition------------------------------

	Elements           Molality       Moles

	C                 3.551e-02   3.552e-02
	Ca                8.518e-03   8.521e-03
	Cl                5.948e-04   5.950e-04
	Fe                9.715e-04   9.718e-04
	Mg                7.435e-03   7.437e-03
	Na                3.320e-03   3.321e-03
	S                 2.248e-02   2.249e-02
	Zn                2.463e-05   2.464e-05

----------------------------Description of solution----------------------------

                                       pH  =   5.856      Charge balance
                                       pe  =  -1.126      Adjusted to redox equilibrium
                        Activity of water  =   0.999
                 Ionic strength (mol/kgw)  =   5.821e-02
                       Mass of water (kg)  =   1.000e+00
                 Total alkalinity (eq/kg)  =   1.058e-02
                       Total CO2 (mol/kg)  =   3.551e-02
                         Temperature (°C)  =  25.00
                  Electrical balance (eq)  =  -1.893e-02
 Percent error, 100*(Cat-|An|)/(Cat+|An|)  = -28.91
                               Iterations  =  11
                                  Total H  = 1.110553e+02
                                  Total O  = 5.569392e+01

----------------------------Distribution of species----------------------------

                                               Log       Log       Log    mole V
   Species          Molality    Activity  Molality  Activity     Gamma   cm³/mol

   H+              1.644e-06   1.394e-06    -5.784    -5.856    -0.072      0.00
   OH-             8.956e-09   7.174e-09    -8.048    -8.144    -0.096     (0)  
   H2O             5.551e+01   9.988e-01     1.744    -0.001     0.000     18.07
C(-4)         8.982e-16
   CH4             8.982e-16   9.103e-16   -15.047   -15.041     0.006     (0)  
C(4)          3.551e-02
   CO2             2.494e-02   2.527e-02    -1.603    -1.597     0.006     (0)  
   HCO3-           9.824e-03   8.056e-03    -2.008    -2.094    -0.086     (0)  
   CaHCO3+         2.864e-04   2.363e-04    -3.543    -3.626    -0.083     (0)  
   MgHCO3+         2.241e-04   1.807e-04    -3.650    -3.743    -0.093     (0)  
   FeHCO3+         2.199e-04   1.786e-04    -3.658    -3.748    -0.090     (0)  
   NaHCO3          1.164e-05   1.180e-05    -4.934    -4.928     0.006     (0)  
   ZnHCO3+         5.812e-06   4.721e-06    -5.236    -5.326    -0.090     (0)  
   FeCO3           1.423e-06   1.442e-06    -5.847    -5.841     0.006     (0)  
   CaCO3           1.031e-06   1.045e-06    -5.987    -5.981     0.006     (0)  
   CO3-2           5.995e-07   2.711e-07    -6.222    -6.567    -0.345     (0)  
   MgCO3           4.894e-07   4.960e-07    -6.310    -6.305     0.006     (0)  
   ZnCO3           2.485e-07   2.518e-07    -6.605    -6.599     0.006     (0)  
   NaCO3-          1.603e-08   1.314e-08    -7.795    -7.881    -0.086     (0)  
   Zn(CO3)2-2      3.350e-09   1.459e-09    -8.475    -8.836    -0.361     (0)  
Ca            8.518e-03
   Ca+2            5.066e-03   2.300e-03    -2.295    -2.638    -0.343     (0)  
   CaSO4           3.165e-03   3.208e-03    -2.500    -2.494     0.006     (0)  
   CaHCO3+         2.864e-04   2.363e-04    -3.543    -3.626    -0.083     (0)  
   CaCO3           1.031e-06   1.045e-06    -5.987    -5.981     0.006     (0)  
   CaHSO4+         3.224e-08   2.619e-08    -7.492    -7.582    -0.090     (0)  
   CaOH+           3.315e-10   2.736e-10    -9.480    -9.563    -0.083     (0)  
Cl            5.948e-04
   Cl-             5.946e-04   4.773e-04    -3.226    -3.321    -0.095     (0)  
   FeCl+           1.790e-07   1.461e-07    -6.747    -6.835    -0.088     (0)  
   ZnCl+           7.416e-09   5.980e-09    -8.130    -8.223    -0.093     (0)  
   ZnOHCl          5.202e-11   5.273e-11   -10.284   -10.278     0.006     (0)  
   ZnCl2           2.949e-12   2.989e-12   -11.530   -11.525     0.006     (0)  
   ZnCl3-          1.985e-15   1.601e-15   -14.702   -14.796    -0.093     (0)  
   ZnCl4-2         8.621e-19   3.829e-19   -18.064   -18.417    -0.353     (0)  
   FeCl+2          5.137e-20   2.281e-20   -19.289   -19.642    -0.353     (0)  
   FeCl2+          5.986e-23   4.863e-23   -22.223   -22.313    -0.090     (0)  
   FeCl3           2.290e-27   2.321e-27   -26.640   -26.634     0.006     (0)  
Fe(2)         9.715e-04
   Fe+2            4.780e-04   2.217e-04    -3.321    -3.654    -0.334     (0)  
   FeSO4           2.720e-04   2.756e-04    -3.565    -3.560     0.006     (0)  
   FeHCO3+         2.199e-04   1.786e-04    -3.658    -3.748    -0.090     (0)  
   FeCO3           1.423e-06   1.442e-06    -5.847    -5.841     0.006     (0)  
   FeCl+           1.790e-07   1.461e-07    -6.747    -6.835    -0.088     (0)  
   FeOH+           6.156e-08   5.025e-08    -7.211    -7.299    -0.088     (0)  
   FeHSO4+         3.108e-09   2.525e-09    -8.508    -8.598    -0.090     (0)  
   Fe(OH)2         3.025e-13   3.065e-13   -12.519   -12.514     0.006     (0)  
   Fe(OH)3-        9.998e-18   8.162e-18   -17.000   -17.088    -0.088     (0)  
   Fe(HS)2         1.015e-19   1.029e-19   -18.994   -18.988     0.006     (0)  
   Fe(HS)3-        9.948e-30   8.082e-30   -29.002   -29.092    -0.090     (0)  
Fe(3)         2.294e-12
   Fe(OH)2+        2.119e-12   1.738e-12   -11.674   -11.760    -0.086     (0)  
   Fe(OH)3         1.583e-13   1.604e-13   -12.801   -12.795     0.006     (0)  
   FeOH+2          1.649e-14   7.323e-15   -13.783   -14.135    -0.353     (0)  
   FeSO4+          1.486e-16   1.213e-16   -15.828   -15.916    -0.088     (0)  
   Fe(OH)4-        1.279e-16   1.049e-16   -15.893   -15.979    -0.086     (0)  
   Fe(SO4)2-       2.283e-17   1.855e-17   -16.641   -16.732    -0.090     (0)  
   Fe+3            7.011e-18   1.583e-18   -17.154   -17.801    -0.646     (0)  
   FeCl+2          5.137e-20   2.281e-20   -19.289   -19.642    -0.353     (0)  
   FeHSO4+2        1.039e-21   4.527e-22   -20.983   -21.344    -0.361     (0)  
   FeCl2+          5.986e-23   4.863e-23   -22.223   -22.313    -0.090     (0)  
   Fe2(OH)2+4      4.009e-26   1.443e-27   -25.397   -26.841    -1.444     (0)  
   FeCl3           2.290e-27   2.321e-27   -26.640   -26.634     0.006     (0)  
   Fe3(OH)4+5      9.443e-35   5.240e-37   -34.025   -36.281    -2.256     (0)  
H(0)          4.858e-13
   H2              2.429e-13   2.462e-13   -12.615   -12.609     0.006     (0)  
Mg            7.435e-03
   Mg+2            4.110e-03   1.917e-03    -2.386    -2.717    -0.331     (0)  
   MgSO4           3.100e-03   3.142e-03    -2.509    -2.503     0.006     (0)  
   MgHCO3+         2.241e-04   1.807e-04    -3.650    -3.743    -0.093     (0)  
   MgCO3           4.894e-07   4.960e-07    -6.310    -6.305     0.006     (0)  
   MgOH+           6.015e-09   4.989e-09    -8.221    -8.302    -0.081     (0)  
Na            3.320e-03
   Na+             3.197e-03   2.604e-03    -2.495    -2.584    -0.089     (0)  
   NaSO4-          1.112e-04   9.122e-05    -3.954    -4.040    -0.086     (0)  
   NaHCO3          1.164e-05   1.180e-05    -4.934    -4.928     0.006     (0)  
   NaCO3-          1.603e-08   1.314e-08    -7.795    -7.881    -0.086     (0)  
O(0)          0.000e+00
   O2              0.000e+00   0.000e+00   -67.169   -67.164     0.006     (0)  
S(-2)         9.582e-12
   H2S             8.674e-12   8.791e-12   -11.062   -11.056     0.006     (0)  
   HS-             9.006e-13   7.215e-13   -12.045   -12.142    -0.096     (0)  
   Zn(HS)2         2.082e-15   2.110e-15   -14.681   -14.676     0.006     (0)  
   S5-2            2.351e-16   1.315e-16   -15.629   -15.881    -0.252     (0)  
   S4-2            1.444e-16   7.675e-17   -15.840   -16.115    -0.275     (0)  
   S6-2            1.165e-16   6.809e-17   -15.934   -16.167    -0.233     (0)  
   S-2             1.408e-19   6.253e-20   -18.851   -19.204    -0.353     (0)  
   Fe(HS)2         1.015e-19   1.029e-19   -18.994   -18.988     0.006     (0)  
   S3-2            5.411e-20   2.704e-20   -19.267   -19.568    -0.301     (0)  
   S2-2            3.243e-21   1.535e-21   -20.489   -20.814    -0.325     (0)  
   Zn(HS)3-        2.709e-26   2.201e-26   -25.567   -25.657    -0.090     (0)  
   Fe(HS)3-        9.948e-30   8.082e-30   -29.002   -29.092    -0.090     (0)  
S(6)          2.248e-02
   SO4-2           1.582e-02   6.990e-03    -1.801    -2.156    -0.355     (0)  
   CaSO4           3.165e-03   3.208e-03    -2.500    -2.494     0.006     (0)  
   MgSO4           3.100e-03   3.142e-03    -2.509    -2.503     0.006     (0)  
   FeSO4           2.720e-04   2.756e-04    -3.565    -3.560     0.006     (0)  
   NaSO4-          1.112e-04   9.122e-05    -3.954    -4.040    -0.086     (0)  
   ZnSO4           7.526e-06   7.628e-06    -5.123    -5.118     0.006     (0)  
   HSO4-           1.167e-06   9.471e-07    -5.933    -6.024    -0.091     (0)  
   Zn(SO4)2-2      9.949e-07   4.334e-07    -6.002    -6.363    -0.361     (0)  
   CaHSO4+         3.224e-08   2.619e-08    -7.492    -7.582    -0.090     (0)  
   FeHSO4+         3.108e-09   2.525e-09    -8.508    -8.598    -0.090     (0)  
   FeSO4+          1.486e-16   1.213e-16   -15.828   -15.916    -0.088     (0)  
   Fe(SO4)2-       2.283e-17   1.855e-17   -16.641   -16.732    -0.090     (0)  
   FeHSO4+2        1.039e-21   4.527e-22   -20.983   -21.344    -0.361     (0)  
Zn            2.463e-05
   Zn+2            1.004e-05   4.655e-06    -4.998    -5.332    -0.334     (0)  
   ZnSO4           7.526e-06   7.628e-06    -5.123    -5.118     0.006     (0)  
   ZnHCO3+         5.812e-06   4.721e-06    -5.236    -5.326    -0.090     (0)  
   Zn(SO4)2-2      9.949e-07   4.334e-07    -6.002    -6.363    -0.361     (0)  
   ZnCO3           2.485e-07   2.518e-07    -6.605    -6.599     0.006     (0)  
   ZnCl+           7.416e-09   5.980e-09    -8.130    -8.223    -0.093     (0)  
   ZnOH+           4.503e-09   3.658e-09    -8.347    -8.437    -0.090     (0)  
   Zn(CO3)2-2      3.350e-09   1.459e-09    -8.475    -8.836    -0.361     (0)  
   ZnOHCl          5.202e-11   5.273e-11   -10.284   -10.278     0.006     (0)  
   Zn(OH)2         2.970e-11   3.010e-11   -10.527   -10.521     0.006     (0)  
   ZnCl2           2.949e-12   2.989e-12   -11.530   -11.525     0.006     (0)  
   Zn(HS)2         2.082e-15   2.110e-15   -14.681   -14.676     0.006     (0)  
   ZnCl3-          1.985e-15   1.601e-15   -14.702   -14.796    -0.093     (0)  
   Zn(OH)3-        8.397e-17   6.821e-17   -16.076   -16.166    -0.090     (0)  
   ZnCl4-2         8.621e-19   3.829e-19   -18.064   -18.417    -0.353     (0)  
   Zn(OH)4-2       1.779e-23   7.748e-24   -22.750   -23.111    -0.361     (0)  
   Zn(HS)3-        2.709e-26   2.201e-26   -25.567   -25.657    -0.090     (0)  

------------------------------Saturation indices-------------------------------

  Phase               SI** log IAP   log K(298 K,   1 atm)

  Anhydrite        -0.43     -4.79   -4.36  CaSO4
  Aragonite        -0.87     -9.21   -8.34  CaCO3
  Artinite         -9.89     -0.29    9.60  MgCO3:Mg(OH)2:3H2O
  Bianchite        -5.73     -7.49   -1.76  ZnSO4:6H2O
  Brucite          -7.85      8.99   16.84  Mg(OH)2
  Calcite          -0.73     -9.21   -8.48  CaCO3
  CH4(g)          -12.18    -15.04   -2.86  CH4
  CO2(g)           -0.13     -1.60   -1.47  CO2
  Dolomite         -1.40    -18.49  -17.09  CaMg(CO3)2
  Dolomite(d)      -1.95    -18.49  -16.54  CaMg(CO3)2
  Epsomite         -2.74     -4.88   -2.14  MgSO4:7H2O
  Fe(OH)2.7Cl.3     0.05     -2.99   -3.04  Fe(OH)2.7Cl0.3
  Fe(OH)3(a)       -5.13     -0.23    4.89  Fe(OH)3
  Fe3(OH)8        -12.63      7.59   20.22  Fe3(OH)8
  FeS(ppt)         -6.03     -9.94   -3.92  FeS
  Goethite          0.77     -0.23   -1.00  FeOOH
  Goslarite        -5.53     -7.49   -1.96  ZnSO4:7H2O
  Greigite        -19.36    -64.40  -45.03  Fe3S4
  Gypsum           -0.21     -4.79   -4.58  CaSO4:2H2O
  H2(g)            -9.46    -12.61   -3.15  H2
  H2O(g)           -1.51     -0.00    1.51  H2O
  H2S(g)          -10.06    -11.06   -1.00  H2S
  Halite           -7.49     -5.91    1.58  NaCl
  Hematite          3.54     -0.47   -4.01  Fe2O3
  Huntite          -7.09    -37.06  -29.97  CaMg3(CO3)4
  Hydromagnesite  -19.38    -28.15   -8.76  Mg5(CO3)4(OH)2:4H2O
  Jarosite-Na     -19.89    -25.17   -5.28  NaFe3(SO4)2(OH)6
  JarositeH       -23.05    -28.44   -5.39  (H3O)Fe3(SO4)2(OH)6
  Mackinawite      -5.29     -9.94   -4.65  FeS
  Maghemite        -6.85     -0.47    6.39  Fe2O3
  Magnesite        -1.26     -9.28   -8.03  MgCO3
  Magnetite         3.85      7.59    3.74  Fe3O4
  Melanterite      -3.60     -5.81   -2.21  FeSO4:7H2O
  Mirabilite       -6.22     -7.33   -1.11  Na2SO4:10H2O
  Nahcolite        -4.13     -4.68   -0.55  NaHCO3
  Natron          -10.43    -11.74   -1.31  Na2CO3:10H2O
  Nesquehonite     -3.66     -9.29   -5.62  MgCO3:3H2O
  O2(g)           -64.27    -67.16   -2.89  O2
  Portlandite     -13.73      9.07   22.80  Ca(OH)2
  Pyrite            0.00    -18.48  -18.48  FeS2
  Siderite          0.67    -10.22  -10.89  FeCO3
  Siderite(d)(3)    0.23    -10.22  -10.45  FeCO3
  Smithsonite      -1.90    -11.90  -10.00  ZnCO3
  Sphalerite        0.00    -11.62  -11.62  ZnS
  Sulfur           -6.43    -21.46  -15.03  S
  Thenardite       -7.15     -7.32   -0.18  Na2SO4
  Thermonatrite   -11.86    -11.74    0.12  Na2CO3:H2O
  Trona           -15.62    -16.41   -0.80  NaHCO3:Na2CO3:2H2O
  Wurtzite         -1.94    -11.62   -9.68  ZnS
  Zincite(c)       -4.76      6.38   11.14  ZnO
  Zincosite       -10.50     -7.49    3.01  ZnSO4
  Zn(OH)2-a        -6.07      6.38   12.45  Zn(OH)2
  Zn(OH)2-b        -5.37      6.38   11.75  Zn(OH)2
  Zn(OH)2-c        -5.82      6.38   12.20  Zn(OH)2
  Zn(OH)2-e        -5.12      6.38   11.50  Zn(OH)2
  Zn(OH)2-g        -5.33      6.38   11.71  Zn(OH)2
  Zn2(OH)2SO4      -8.61     -1.11    7.50  Zn2(OH)2SO4
  Zn2(OH)3Cl      -11.62      3.58   15.20  Zn2(OH)3Cl
  Zn3O(SO4)2      -27.62     -8.60   19.02  ZnO:2ZnSO4
  Zn4(OH)6SO4     -16.75     11.65   28.40  Zn4(OH)6SO4
  Zn5(OH)8Cl2     -24.96     13.54   38.50  Zn5(OH)8Cl2
  ZnCl2           -19.00    -11.97    7.03  ZnCl2
  ZnCO3:H2O        -1.64    -11.90  -10.26  ZnCO3:H2O
  ZnMetal         -28.84     -3.08   25.76  Zn
  ZnO(a)           -4.93      6.38   11.31  ZnO
  ZnS(a)           -2.57    -11.62   -9.05  ZnS
  ZnSO4:H2O        -6.92     -7.49   -0.57  ZnSO4:H2O

**For a gas, SI = log10(fugacity). Fugacity = pressure * phi / 1 atm.
  For ideal gases, phi = 1.

Reaction step 3.

Using solution 1.	
Using pure phase assemblage 1.	
Using reaction 1.	

Reaction 1.	

	  3.000e-02 moles of the following reaction have been added:

	                 Relative
	Reactant            moles

	CH2O                 1.00000

	                 Relative
	Element             moles
	C                    1.00000
	H                    2.00000
	O                    1.00000

-------------------------------Phase assemblage--------------------------------

                                                      Moles in assemblage
Phase               SI  log IAP  log K(T, P)   Initial       Final       Delta

Pyrite            0.00   -18.48    -18.48    1.000e+01   1.000e+01   4.856e-03
Sphalerite        0.00   -11.62    -11.62    1.000e+01   1.000e+01   3.226e-03

-----------------------------Solution composition------------------------------

	Elements           Molality       Moles

	C                 4.551e-02   4.552e-02
	Ca                8.518e-03   8.521e-03
	Cl                5.948e-04   5.950e-04
	Fe                2.041e-17   2.042e-17
	Mg                7.434e-03   7.437e-03
	Na                3.319e-03   3.321e-03
	S                 2.051e-02   2.052e-02
	Zn                6.746e-07   6.748e-07

----------------------------Description of solution----------------------------

                                       pH  =   6.077      Charge balance
                                       pe  =  -2.481      Adjusted to redox equilibrium
                        Activity of water  =   0.999
                 Ionic strength (mol/kgw)  =   5.488e-02
                       Mass of water (kg)  =   1.000e+00
                 Total alkalinity (eq/kg)  =   1.907e-02
                       Total CO2 (mol/kg)  =   4.551e-02
                         Temperature (°C)  =  25.00
                  Electrical balance (eq)  =  -1.893e-02
 Percent error, 100*(Cat-|An|)/(Cat+|An|)  = -28.52
                               Iterations  =  17
                                  Total H  = 1.110753e+02
                                  Total O  = 5.570392e+01

----------------------------Distribution of species----------------------------

                                               Log       Log       Log    mole V
   Species          Molality    Activity  Molality  Activity     Gamma   cm³/mol

   H+              9.853e-07   8.374e-07    -6.006    -6.077    -0.071      0.00
   OH-             1.483e-08   1.194e-08    -7.829    -7.923    -0.094     (0)  
   H2O             5.551e+01   9.986e-01     1.744    -0.001     0.000     18.07
C(-4)         1.123e-06
   CH4             1.123e-06   1.138e-06    -5.949    -5.944     0.005     (0)  
C(4)          4.551e-02
   CO2             2.693e-02   2.727e-02    -1.570    -1.564     0.005     (0)  
   HCO3-           1.757e-02   1.446e-02    -1.755    -1.840    -0.084     (0)  
   CaHCO3+         5.497e-04   4.554e-04    -3.260    -3.342    -0.082     (0)  
   MgHCO3+         4.355e-04   3.529e-04    -3.361    -3.452    -0.091     (0)  
   NaHCO3          2.110e-05   2.137e-05    -4.676    -4.670     0.005     (0)  
   CaCO3           3.308e-06   3.350e-06    -5.480    -5.475     0.005     (0)  
   CO3-2           1.762e-06   8.100e-07    -5.754    -6.092    -0.338     (0)  
   MgCO3           1.591e-06   1.612e-06    -5.798    -5.793     0.005     (0)  
   NaCO3-          4.813e-08   3.963e-08    -7.318    -7.402    -0.084     (0)  
   ZnHCO3+         1.167e-14   9.521e-15   -13.933   -14.021    -0.088     (0)  
   ZnCO3           8.344e-16   8.450e-16   -15.079   -15.073     0.005     (0)  
   Zn(CO3)2-2      3.304e-17   1.463e-17   -16.481   -16.835    -0.354     (0)  
   FeHCO3+         2.534e-19   2.067e-19   -18.596   -18.685    -0.088     (0)  
   FeCO3           2.742e-21   2.777e-21   -20.562   -20.556     0.005     (0)  
Ca            8.518e-03
   Ca+2            5.352e-03   2.469e-03    -2.271    -2.608    -0.336     (0)  
   CaSO4           2.612e-03   2.646e-03    -2.583    -2.577     0.005     (0)  
   CaHCO3+         5.497e-04   4.554e-04    -3.260    -3.342    -0.082     (0)  
   CaCO3           3.308e-06   3.350e-06    -5.480    -5.475     0.005     (0)  
   CaHSO4+         1.591e-08   1.298e-08    -7.798    -7.887    -0.088     (0)  
   CaOH+           5.898e-10   4.886e-10    -9.229    -9.311    -0.082     (0)  
Cl            5.948e-04
   Cl-             5.948e-04   4.798e-04    -3.226    -3.319    -0.093     (0)  
   ZnCl+           8.333e-18   6.752e-18   -17.079   -17.171    -0.091     (0)  
   ZnOHCl          9.782e-20   9.906e-20   -19.010   -19.004     0.005     (0)  
   ZnCl2           3.350e-21   3.392e-21   -20.475   -20.470     0.005     (0)  
   FeCl+           1.155e-22   9.466e-23   -21.938   -22.024    -0.086     (0)  
   ZnCl3-          2.254e-24   1.826e-24   -23.647   -23.738    -0.091     (0)  
   ZnCl4-2         9.721e-28   4.391e-28   -27.012   -27.357    -0.345     (0)  
   FeCl+2          1.448e-36   6.539e-37   -35.839   -36.185    -0.345     (0)  
   FeCl2+          1.718e-39   1.401e-39   -38.765   -38.853    -0.088     (0)  
   FeCl3           0.000e+00   0.000e+00   -43.178   -43.172     0.005     (0)  
Fe(2)         2.041e-17
   Fe(HS)2         1.874e-17   1.898e-17   -16.727   -16.722     0.005     (0)  
   Fe(HS)3-        9.776e-19   7.976e-19   -18.010   -18.098    -0.088     (0)  
   Fe+2            3.034e-19   1.429e-19   -18.518   -18.845    -0.327     (0)  
   FeHCO3+         2.534e-19   2.067e-19   -18.596   -18.685    -0.088     (0)  
   FeSO4           1.348e-19   1.365e-19   -18.870   -18.865     0.005     (0)  
   FeCO3           2.742e-21   2.777e-21   -20.562   -20.556     0.005     (0)  
   FeCl+           1.155e-22   9.466e-23   -21.938   -22.024    -0.086     (0)  
   FeOH+           6.574e-23   5.390e-23   -22.182   -22.268    -0.086     (0)  
   FeHSO4+         9.211e-25   7.514e-25   -24.036   -24.124    -0.088     (0)  
   Fe(OH)2         5.402e-28   5.470e-28   -27.267   -27.262     0.005     (0)  
   Fe(OH)3-        2.956e-32   2.424e-32   -31.529   -31.616    -0.086     (0)  
Fe(3)         1.883e-28
   Fe(OH)2+        1.666e-28   1.372e-28   -27.778   -27.863    -0.084     (0)  
   Fe(OH)3         2.081e-29   2.108e-29   -28.682   -28.676     0.005     (0)  
   FeOH+2          7.692e-31   3.475e-31   -30.114   -30.459    -0.345     (0)  
   Fe(OH)4-        2.784e-32   2.292e-32   -31.555   -31.640    -0.084     (0)  
   FeSO4+          3.242e-33   2.658e-33   -32.489   -32.575    -0.086     (0)  
   Fe(SO4)2-       3.828e-34   3.123e-34   -33.417   -33.505    -0.088     (0)  
   Fe+3            1.949e-34   4.513e-35   -33.710   -34.346    -0.635     (0)  
   FeCl+2          1.448e-36   6.539e-37   -35.839   -36.185    -0.345     (0)  
   FeHSO4+2        1.345e-38   5.960e-39   -37.871   -38.225    -0.354     (0)  
   FeCl2+          1.718e-39   1.401e-39   -38.765   -38.853    -0.088     (0)  
   FeCl3           0.000e+00   0.000e+00   -43.178   -43.172     0.005     (0)  
   Fe2(OH)2+4      0.000e+00   0.000e+00   -58.074   -59.488    -1.415     (0)  
   Fe3(OH)4+5      0.000e+00   0.000e+00   -82.821   -85.031    -2.210     (0)  
H(0)          8.969e-11
   H2              4.485e-11   4.542e-11   -10.348   -10.343     0.005     (0)  
Mg            7.434e-03
   Mg+2            4.405e-03   2.085e-03    -2.356    -2.681    -0.325     (0)  
   MgSO4           2.592e-03   2.625e-03    -2.586    -2.581     0.005     (0)  
   MgHCO3+         4.355e-04   3.529e-04    -3.361    -3.452    -0.091     (0)  
   MgCO3           1.591e-06   1.612e-06    -5.798    -5.793     0.005     (0)  
   MgOH+           1.084e-08   9.027e-09    -7.965    -8.044    -0.080     (0)  
Na            3.319e-03
   Na+             3.212e-03   2.628e-03    -2.493    -2.580    -0.087     (0)  
   NaSO4-          8.591e-05   7.073e-05    -4.066    -4.150    -0.084     (0)  
   NaHCO3          2.110e-05   2.137e-05    -4.676    -4.670     0.005     (0)  
   NaCO3-          4.813e-08   3.963e-08    -7.318    -7.402    -0.084     (0)  
O(0)          0.000e+00
   O2              0.000e+00   0.000e+00   -71.701   -71.696     0.005     (0)  
S(-2)         3.274e-03
   H2S             2.791e-03   2.826e-03    -2.554    -2.549     0.005     (0)  
   HS-             4.794e-04   3.860e-04    -3.319    -3.413    -0.094     (0)  
   Zn(HS)2         6.699e-07   6.784e-07    -6.174    -6.168     0.005     (0)  
   S5-2            2.075e-07   1.171e-07    -6.683    -6.931    -0.248     (0)  
   S4-2            1.273e-07   6.833e-08    -6.895    -7.165    -0.270     (0)  
   S6-2            1.030e-07   6.062e-08    -6.987    -7.217    -0.230     (0)  
   Zn(HS)3-        4.640e-09   3.785e-09    -8.334    -8.422    -0.088     (0)  
   S-2             1.232e-10   5.567e-11    -9.909   -10.254    -0.345     (0)  
   S3-2            4.758e-11   2.408e-11   -10.323   -10.618    -0.296     (0)  
   S2-2            2.846e-12   1.366e-12   -11.546   -11.864    -0.319     (0)  
   Fe(HS)2         1.874e-17   1.898e-17   -16.727   -16.722     0.005     (0)  
   Fe(HS)3-        9.776e-19   7.976e-19   -18.010   -18.098    -0.088     (0)  
S(6)          1.724e-02
   SO4-2           1.195e-02   5.371e-03    -1.923    -2.270    -0.347     (0)  
   CaSO4           2.612e-03   2.646e-03    -2.583    -2.577     0.005     (0)  
   MgSO4           2.592e-03   2.625e-03    -2.586    -2.581     0.005     (0)  
   NaSO4-          8.591e-05   7.073e-05    -4.066    -4.150    -0.084     (0)  
   HSO4-           5.365e-07   4.373e-07    -6.270    -6.359    -0.089     (0)  
   CaHSO4+         1.591e-08   1.298e-08    -7.798    -7.887    -0.088     (0)  
   ZnSO4           6.501e-15   6.583e-15   -14.187   -14.182     0.005     (0)  
   Zn(SO4)2-2      6.488e-16   2.874e-16   -15.188   -15.542    -0.354     (0)  
   FeSO4           1.348e-19   1.365e-19   -18.870   -18.865     0.005     (0)  
   FeHSO4+         9.211e-25   7.514e-25   -24.036   -24.124    -0.088     (0)  
   FeSO4+          3.242e-33   2.658e-33   -32.489   -32.575    -0.086     (0)  
   Fe(SO4)2-       3.828e-34   3.123e-34   -33.417   -33.505    -0.088     (0)  
   FeHSO4+2        1.345e-38   5.960e-39   -37.871   -38.225    -0.354     (0)  
Zn            6.746e-07
   Zn(HS)2         6.699e-07   6.784e-07    -6.174    -6.168     0.005     (0)  
   Zn(HS)3-        4.640e-09   3.785e-09    -8.334    -8.422    -0.088     (0)  
   ZnHCO3+         1.167e-14   9.521e-15   -13.933   -14.021    -0.088     (0)  
   Zn+2            1.110e-14   5.229e-15   -13.955   -14.282    -0.327     (0)  
   ZnSO4           6.501e-15   6.583e-15   -14.187   -14.182     0.005     (0)  
   ZnCO3           8.344e-16   8.450e-16   -15.079   -15.073     0.005     (0)  
   Zn(SO4)2-2      6.488e-16   2.874e-16   -15.188   -15.542    -0.354     (0)  
   Zn(CO3)2-2      3.304e-17   1.463e-17   -16.481   -16.835    -0.354     (0)  
   ZnOH+           8.380e-18   6.837e-18   -17.077   -17.165    -0.088     (0)  
   ZnCl+           8.333e-18   6.752e-18   -17.079   -17.171    -0.091     (0)  
   ZnOHCl          9.782e-20   9.906e-20   -19.010   -19.004     0.005     (0)  
   Zn(OH)2         9.243e-20   9.361e-20   -19.034   -19.029     0.005     (0)  
   ZnCl2           3.350e-21   3.392e-21   -20.475   -20.470     0.005     (0)  
   ZnCl3-          2.254e-24   1.826e-24   -23.647   -23.738    -0.091     (0)  
   Zn(OH)3-        4.327e-25   3.530e-25   -24.364   -24.452    -0.088     (0)  
   ZnCl4-2         9.721e-28   4.391e-28   -27.012   -27.357    -0.345     (0)  
   Zn(OH)4-2       1.506e-31   6.672e-32   -30.822   -31.176    -0.354     (0)  

------------------------------Saturation indices-------------------------------

  Phase               SI** log IAP   log K(298 K,   1 atm)

  Anhydrite        -0.52     -4.88   -4.36  CaSO4
  Aragonite        -0.36     -8.70   -8.34  CaCO3
  Artinite         -8.90      0.70    9.60  MgCO3:Mg(OH)2:3H2O
  Bianchite       -14.79    -16.56   -1.76  ZnSO4:6H2O
  Brucite          -7.37      9.47   16.84  Mg(OH)2
  Calcite          -0.22     -8.70   -8.48  CaCO3
  CH4(g)           -3.08     -5.94   -2.86  CH4
  CO2(g)           -0.10     -1.56   -1.47  CO2
  Dolomite         -0.38    -17.47  -17.09  CaMg(CO3)2
  Dolomite(d)      -0.93    -17.47  -16.54  CaMg(CO3)2
  Epsomite         -2.81     -4.95   -2.14  MgSO4:7H2O
  Fe(OH)2.7Cl.3   -15.89    -18.93   -3.04  Fe(OH)2.7Cl0.3
  Fe(OH)3(a)      -21.01    -16.12    4.89  Fe(OH)3
  Fe3(OH)8        -59.15    -38.92   20.22  Fe3(OH)8
  FeS(ppt)        -12.27    -16.18   -3.92  FeS
  Goethite        -15.12    -16.12   -1.00  FeOOH
  Goslarite       -14.60    -16.56   -1.96  ZnSO4:7H2O
  Greigite        -31.85    -76.88  -45.03  Fe3S4
  Gypsum           -0.30     -4.88   -4.58  CaSO4:2H2O
  H2(g)            -7.19    -10.34   -3.15  H2
  H2O(g)           -1.51     -0.00    1.51  H2O
  H2S(g)           -1.55     -2.55   -1.00  H2S
  Halite           -7.48     -5.90    1.58  NaCl
  Hematite        -28.22    -32.23   -4.01  Fe2O3
  Huntite          -5.05    -35.02  -29.97  CaMg3(CO3)4
  Hydromagnesite  -16.86    -25.62   -8.76  Mg5(CO3)4(OH)2:4H2O
  Jarosite-Na     -68.42    -73.70   -5.28  NaFe3(SO4)2(OH)6
  JarositeH       -71.81    -77.20   -5.39  (H3O)Fe3(SO4)2(OH)6
  Mackinawite     -11.53    -16.18   -4.65  FeS
  Maghemite       -38.62    -32.23    6.39  Fe2O3
  Magnesite        -0.74     -8.77   -8.03  MgCO3
  Magnetite       -42.66    -38.92    3.74  Fe3O4
  Melanterite     -18.91    -21.12   -2.21  FeSO4:7H2O
  Mirabilite       -6.32     -7.44   -1.11  Na2SO4:10H2O
  Nahcolite        -3.87     -4.42   -0.55  NaHCO3
  Natron           -9.95    -11.26   -1.31  Na2CO3:10H2O
  Nesquehonite     -3.15     -8.77   -5.62  MgCO3:3H2O
  O2(g)           -68.80    -71.70   -2.89  O2
  Portlandite     -13.25      9.55   22.80  Ca(OH)2
  Pyrite            0.00    -18.48  -18.48  FeS2
  Siderite        -14.05    -24.94  -10.89  FeCO3
  Siderite(d)(3)  -14.49    -24.94  -10.45  FeCO3
  Smithsonite     -10.37    -20.37  -10.00  ZnCO3
  Sphalerite        0.00    -11.62  -11.62  ZnS
  Sulfur           -0.19    -15.22  -15.03  S
  Thenardite       -7.25     -7.43   -0.18  Na2SO4
  Thermonatrite   -11.38    -11.25    0.12  Na2CO3:H2O
  Trona           -14.88    -15.67   -0.80  NaHCO3:Na2CO3:2H2O
  Wurtzite         -1.94    -11.62   -9.68  ZnS
  Zincite(c)      -13.27     -2.13   11.14  ZnO
  Zincosite       -19.56    -16.55    3.01  ZnSO4
  Zn(OH)2-a       -14.58     -2.13   12.45  Zn(OH)2
  Zn(OH)2-b       -13.88     -2.13   11.75  Zn(OH)2
  Zn(OH)2-c       -14.33     -2.13   12.20  Zn(OH)2
  Zn(OH)2-e       -13.63     -2.13   11.50  Zn(OH)2
  Zn(OH)2-g       -13.84     -2.13   11.71  Zn(OH)2
  Zn2(OH)2SO4     -26.18    -18.68    7.50  Zn2(OH)2SO4
  Zn2(OH)3Cl      -28.85    -13.65   15.20  Zn2(OH)3Cl
  Zn3O(SO4)2      -54.25    -35.23   19.02  ZnO:2ZnSO4
  Zn4(OH)6SO4     -51.34    -22.94   28.40  Zn4(OH)6SO4
  Zn5(OH)8Cl2     -67.93    -29.43   38.50  Zn5(OH)8Cl2
  ZnCl2           -27.95    -20.92    7.03  ZnCl2
  ZnCO3:H2O       -10.11    -20.37  -10.26  ZnCO3:H2O
  ZnMetal         -35.08     -9.32   25.76  Zn
  ZnO(a)          -13.44     -2.13   11.31  ZnO
  ZnS(a)           -2.57    -11.62   -9.05  ZnS
  ZnSO4:H2O       -15.98    -16.55   -0.57  ZnSO4:H2O

**For a gas, SI = log10(fugacity). Fugacity = pressure * phi / 1 atm.
  For ideal gases, phi = 1.

------------------
End of simulation.
------------------

------------------------------------
Reading input data for simulation 3.
------------------------------------

