   Input file: harm_mean
  Output file: harm_mean.out
Database file: ../database/wateq4f.dat

------------------
Reading data base.
------------------

	SOLUTION_MASTER_SPECIES
	SOLUTION_SPECIES
	PHASES
	EXCHANGE_MASTER_SPECIES
	EXCHANGE_SPECIES
	SURFACE_MASTER_SPECIES
	SURFACE_SPECIES
	RATES
	END
------------------------------------
Reading input data for simulation 1.
------------------------------------

	DATABASE ../database/wateq4f.dat
	SOLUTION_MASTER_SPECIES # define the tracers...
	Hto Hto 0 Hto 20
	Hdo Hdo 0 Hdo 21
	Nat Nat+ 0 Nat 22
	I I- 0 I 126.9
	Cl_tr Cl_tr- 0 Cl_tr 36.45
	Cs     Cs+     0 Cs 132.9
	SOLUTION_SPECIES
	Hto = Hto
	Hdo = Hdo
	Nat+ = Nat+
	I- = I-
	Cl_tr- = Cl_tr-
	PHASES
	Hto
		Hto = Hto
		log_k  -13.
	Hdo
		Hdo = Hdo
		log_k  -13.
	I
		NaI = I- + Na+
		log_k  -13.
	Nat
		NatCl = Nat+ + Cl-
		log_k  -13.
	END
------------------
End of simulation.
------------------

------------------------------------
Reading input data for simulation 2.
------------------------------------

	SOLUTION 0
	pH 7.09 charge
	  Na 100
	  Cl 100
	 Hto 1e-3
	    Hdo 1e-3
	    Nat 1e-3
	    I 1e-3
	 water 1
	SOLUTION 1
	pH 7.09 charge
	  Na 100
	  Cl 100
	 Hto 0.66e-3
	 Hdo 0.66e-3
	 Nat 0.66e-3
	 I 0.66e-3
	 water 1
	SOLUTION 2
	pH 7.09 charge
	  Na 100
	  Cl 100
	 Hto 0.33e-3
	 Hdo 0.33e-3
	 Nat 0.33e-3
	 I 0.33e-3
	 water 1
	END
-------------------------------------------
Beginning of initial solution calculations.
-------------------------------------------

Initial solution 0.	

-----------------------------Solution composition------------------------------

	Elements           Molality       Moles

	Cl                1.000e-01   1.000e-01
	Hdo               1.000e-06   1.000e-06
	Hto               1.000e-06   1.000e-06
	I                 1.000e-06   1.000e-06
	Na                1.000e-01   1.000e-01
	Nat               1.000e-06   1.000e-06

----------------------------Description of solution----------------------------

                                       pH  =   6.983      Charge balance
                                       pe  =   4.000    
                        Activity of water  =   0.997
                           Ionic strength  =   1.000e-01
                       Mass of water (kg)  =   1.000e+00
                 Total alkalinity (eq/kg)  =   7.070e-18
                    Total carbon (mol/kg)  =   0.000e+00
                       Total CO2 (mol/kg)  =   0.000e+00
                         Temperature (°C)  =  25.00
                  Electrical balance (eq)  =  -5.893e-14
 Percent error, 100*(Cat-|An|)/(Cat+|An|)  =  -0.00
                               Iterations  =   4
                                  Total H  = 1.110124e+02
                                  Total O  = 5.550622e+01

----------------------------Distribution of species----------------------------

                                               Log       Log       Log    mole V
   Species          Molality    Activity  Molality  Activity     Gamma   cmł/mol

   OH-             1.260e-07   9.595e-08    -6.900    -7.018    -0.118     (0)  
   H+              1.260e-07   1.040e-07    -6.900    -6.983    -0.083      0.00
   H2O             5.551e+01   9.966e-01     1.744    -0.001     0.000     18.07
Cl            1.000e-01
   Cl-             1.000e-01   7.642e-02    -1.000    -1.117    -0.117     (0)  
H(0)          1.496e-25
   H2              7.480e-26   7.654e-26   -25.126   -25.116     0.010     (0)  
Hdo           1.000e-06
   Hdo             1.000e-06   1.023e-06    -6.000    -5.990     0.010     (0)  
Hto           1.000e-06
   Hto             1.000e-06   1.023e-06    -6.000    -5.990     0.010     (0)  
I             1.000e-06
   I-              1.000e-06   7.812e-07    -6.000    -6.107    -0.107     (0)  
Na            1.000e-01
   Na+             1.000e-01   7.826e-02    -1.000    -1.106    -0.106     (0)  
Nat           1.000e-06
   Nat+            1.000e-06   7.812e-07    -6.000    -6.107    -0.107     (0)  
O(0)          0.000e+00
   O2              0.000e+00   0.000e+00   -42.161   -42.151     0.010     (0)  

------------------------------Saturation indices-------------------------------

  Phase               SI** log IAP   log K(298 K,   1 atm)

  H2(g)           -21.97    -25.12   -3.15  H2
  H2O(g)           -1.51     -0.00    1.51  H2O
  Halite           -3.81     -2.22    1.58  NaCl
  Hdo               7.01     -5.99  -13.00  Hdo
  Hto               7.01     -5.99  -13.00  Hto
  I                 5.79     -7.21  -13.00  NaI
  Nat               5.78     -7.22  -13.00  NatCl
  O2(g)           -39.26    -42.15   -2.89  O2

**For a gas, SI = log10(fugacity). Fugacity = pressure * phi / 1 atm.
  For ideal gases, phi = 1.

Initial solution 1.	

-----------------------------Solution composition------------------------------

	Elements           Molality       Moles

	Cl                1.000e-01   1.000e-01
	Hdo               6.600e-07   6.600e-07
	Hto               6.600e-07   6.600e-07
	I                 6.600e-07   6.600e-07
	Na                1.000e-01   1.000e-01
	Nat               6.600e-07   6.600e-07

----------------------------Description of solution----------------------------

                                       pH  =   6.983      Charge balance
                                       pe  =   4.000    
                        Activity of water  =   0.997
                           Ionic strength  =   1.000e-01
                       Mass of water (kg)  =   1.000e+00
                 Total alkalinity (eq/kg)  =  -2.450e-18
                    Total carbon (mol/kg)  =   0.000e+00
                       Total CO2 (mol/kg)  =   0.000e+00
                         Temperature (°C)  =  25.00
                  Electrical balance (eq)  =  -5.892e-14
 Percent error, 100*(Cat-|An|)/(Cat+|An|)  =  -0.00
                               Iterations  =   4
                                  Total H  = 1.110124e+02
                                  Total O  = 5.550622e+01

----------------------------Distribution of species----------------------------

                                               Log       Log       Log    mole V
   Species          Molality    Activity  Molality  Activity     Gamma   cmł/mol

   H+              1.260e-07   1.040e-07    -6.900    -6.983    -0.083      0.00
   OH-             1.260e-07   9.595e-08    -6.900    -7.018    -0.118     (0)  
   H2O             5.551e+01   9.966e-01     1.744    -0.001     0.000     18.07
Cl            1.000e-01
   Cl-             1.000e-01   7.642e-02    -1.000    -1.117    -0.117     (0)  
H(0)          1.496e-25
   H2              7.480e-26   7.654e-26   -25.126   -25.116     0.010     (0)  
Hdo           6.600e-07
   Hdo             6.600e-07   6.754e-07    -6.180    -6.170     0.010     (0)  
Hto           6.600e-07
   Hto             6.600e-07   6.754e-07    -6.180    -6.170     0.010     (0)  
I             6.600e-07
   I-              6.600e-07   5.156e-07    -6.180    -6.288    -0.107     (0)  
Na            1.000e-01
   Na+             1.000e-01   7.826e-02    -1.000    -1.106    -0.106     (0)  
Nat           6.600e-07
   Nat+            6.600e-07   5.156e-07    -6.180    -6.288    -0.107     (0)  
O(0)          0.000e+00
   O2              0.000e+00   0.000e+00   -42.161   -42.151     0.010     (0)  

------------------------------Saturation indices-------------------------------

  Phase               SI** log IAP   log K(298 K,   1 atm)

  H2(g)           -21.97    -25.12   -3.15  H2
  H2O(g)           -1.51     -0.00    1.51  H2O
  Halite           -3.81     -2.22    1.58  NaCl
  Hdo               6.83     -6.17  -13.00  Hdo
  Hto               6.83     -6.17  -13.00  Hto
  I                 5.61     -7.39  -13.00  NaI
  Nat               5.60     -7.40  -13.00  NatCl
  O2(g)           -39.26    -42.15   -2.89  O2

**For a gas, SI = log10(fugacity). Fugacity = pressure * phi / 1 atm.
  For ideal gases, phi = 1.

Initial solution 2.	

-----------------------------Solution composition------------------------------

	Elements           Molality       Moles

	Cl                1.000e-01   1.000e-01
	Hdo               3.300e-07   3.300e-07
	Hto               3.300e-07   3.300e-07
	I                 3.300e-07   3.300e-07
	Na                1.000e-01   1.000e-01
	Nat               3.300e-07   3.300e-07

----------------------------Description of solution----------------------------

                                       pH  =   6.983      Charge balance
                                       pe  =   4.000    
                        Activity of water  =   0.997
                           Ionic strength  =   1.000e-01
                       Mass of water (kg)  =   1.000e+00
                 Total alkalinity (eq/kg)  =  -5.585e-18
                    Total carbon (mol/kg)  =   0.000e+00
                       Total CO2 (mol/kg)  =   0.000e+00
                         Temperature (°C)  =  25.00
                  Electrical balance (eq)  =  -5.893e-14
 Percent error, 100*(Cat-|An|)/(Cat+|An|)  =  -0.00
                               Iterations  =   4
                                  Total H  = 1.110124e+02
                                  Total O  = 5.550622e+01

----------------------------Distribution of species----------------------------

                                               Log       Log       Log    mole V
   Species          Molality    Activity  Molality  Activity     Gamma   cmł/mol

   H+              1.260e-07   1.040e-07    -6.900    -6.983    -0.083      0.00
   OH-             1.260e-07   9.595e-08    -6.900    -7.018    -0.118     (0)  
   H2O             5.551e+01   9.966e-01     1.744    -0.001     0.000     18.07
Cl            1.000e-01
   Cl-             1.000e-01   7.642e-02    -1.000    -1.117    -0.117     (0)  
H(0)          1.496e-25
   H2              7.480e-26   7.654e-26   -25.126   -25.116     0.010     (0)  
Hdo           3.300e-07
   Hdo             3.300e-07   3.377e-07    -6.481    -6.471     0.010     (0)  
Hto           3.300e-07
   Hto             3.300e-07   3.377e-07    -6.481    -6.471     0.010     (0)  
I             3.300e-07
   I-              3.300e-07   2.578e-07    -6.481    -6.589    -0.107     (0)  
Na            1.000e-01
   Na+             1.000e-01   7.826e-02    -1.000    -1.106    -0.106     (0)  
Nat           3.300e-07
   Nat+            3.300e-07   2.578e-07    -6.481    -6.589    -0.107     (0)  
O(0)          0.000e+00
   O2              0.000e+00   0.000e+00   -42.161   -42.151     0.010     (0)  

------------------------------Saturation indices-------------------------------

  Phase               SI** log IAP   log K(298 K,   1 atm)

  H2(g)           -21.97    -25.12   -3.15  H2
  H2O(g)           -1.51     -0.00    1.51  H2O
  Halite           -3.81     -2.22    1.58  NaCl
  Hdo               6.53     -6.47  -13.00  Hdo
  Hto               6.53     -6.47  -13.00  Hto
  I                 5.30     -7.70  -13.00  NaI
  Nat               5.29     -7.71  -13.00  NatCl
  O2(g)           -39.26    -42.15   -2.89  O2

**For a gas, SI = log10(fugacity). Fugacity = pressure * phi / 1 atm.
  For ideal gases, phi = 1.

------------------
End of simulation.
------------------

------------------------------------
Reading input data for simulation 3.
------------------------------------

	SOLUTION 3 # Outer solution where the tracers precipitate...
	pH 7.09 charge
	  Na 100
	  Cl 100
	 Hto 0.33e-10
	 Hdo 0.33e-10
	 Nat 0.33e-10
	 I 0.33e-10
	EQUILIBRIUM_PHASES 3
	Hto 0 0
	 Hdo 0 0
	 I 0 0
	 Nat 0 0
	SAVE solution 3
	END
-------------------------------------------
Beginning of initial solution calculations.
-------------------------------------------

Initial solution 3.	

-----------------------------Solution composition------------------------------

	Elements           Molality       Moles

	Cl                1.000e-01   1.000e-01
	Hdo               3.300e-14   3.300e-14
	Hto               3.300e-14   3.300e-14
	I                 3.300e-14   3.300e-14
	Na                1.000e-01   1.000e-01
	Nat               3.300e-14   3.300e-14

----------------------------Description of solution----------------------------

                                       pH  =   6.983      Charge balance
                                       pe  =   4.000    
                        Activity of water  =   0.997
                           Ionic strength  =   1.000e-01
                       Mass of water (kg)  =   1.000e+00
                 Total alkalinity (eq/kg)  =   5.814e-18
                    Total carbon (mol/kg)  =   0.000e+00
                       Total CO2 (mol/kg)  =   0.000e+00
                         Temperature (°C)  =  25.00
                  Electrical balance (eq)  =  -5.890e-14
 Percent error, 100*(Cat-|An|)/(Cat+|An|)  =  -0.00
                               Iterations  =   4
                                  Total H  = 1.110124e+02
                                  Total O  = 5.550622e+01

----------------------------Distribution of species----------------------------

                                               Log       Log       Log    mole V
   Species          Molality    Activity  Molality  Activity     Gamma   cmł/mol

   OH-             1.260e-07   9.595e-08    -6.900    -7.018    -0.118     (0)  
   H+              1.260e-07   1.040e-07    -6.900    -6.983    -0.083      0.00
   H2O             5.551e+01   9.966e-01     1.744    -0.001     0.000     18.07
Cl            1.000e-01
   Cl-             1.000e-01   7.642e-02    -1.000    -1.117    -0.117     (0)  
H(0)          1.496e-25
   H2              7.480e-26   7.654e-26   -25.126   -25.116     0.010     (0)  
Hdo           3.300e-14
   Hdo             3.300e-14   3.377e-14   -13.481   -13.471     0.010     (0)  
Hto           3.300e-14
   Hto             3.300e-14   3.377e-14   -13.481   -13.471     0.010     (0)  
I             3.300e-14
   I-              3.300e-14   2.578e-14   -13.481   -13.589    -0.107     (0)  
Na            1.000e-01
   Na+             1.000e-01   7.826e-02    -1.000    -1.106    -0.106     (0)  
Nat           3.300e-14
   Nat+            3.300e-14   2.578e-14   -13.481   -13.589    -0.107     (0)  
O(0)          0.000e+00
   O2              0.000e+00   0.000e+00   -42.161   -42.151     0.010     (0)  

------------------------------Saturation indices-------------------------------

  Phase               SI** log IAP   log K(298 K,   1 atm)

  H2(g)           -21.97    -25.12   -3.15  H2
  H2O(g)           -1.51     -0.00    1.51  H2O
  Halite           -3.81     -2.22    1.58  NaCl
  Hdo              -0.47    -13.47  -13.00  Hdo
  Hto              -0.47    -13.47  -13.00  Hto
  I                -1.70    -14.70  -13.00  NaI
  Nat              -1.71    -14.71  -13.00  NatCl
  O2(g)           -39.26    -42.15   -2.89  O2

**For a gas, SI = log10(fugacity). Fugacity = pressure * phi / 1 atm.
  For ideal gases, phi = 1.

-----------------------------------------
Beginning of batch-reaction calculations.
-----------------------------------------

Reaction step 1.

Using solution 3.	
Using pure phase assemblage 3.	

-------------------------------Phase assemblage--------------------------------

                                                      Moles in assemblage
Phase               SI  log IAP  log K(T, P)   Initial       Final       Delta

Hdo              -0.47   -13.47    -13.00    0.000e+00           0   0.000e+00
Hto              -0.47   -13.47    -13.00    0.000e+00           0   0.000e+00
I                -1.70   -14.70    -13.00    0.000e+00           0   0.000e+00
Nat              -1.71   -14.71    -13.00    0.000e+00           0   0.000e+00

-----------------------------Solution composition------------------------------

	Elements           Molality       Moles

	Cl                1.000e-01   1.000e-01
	Hdo               3.300e-14   3.300e-14
	Hto               3.300e-14   3.300e-14
	I                 3.300e-14   3.300e-14
	Na                1.000e-01   1.000e-01
	Nat               3.300e-14   3.300e-14

----------------------------Description of solution----------------------------

                                       pH  =   6.983      Charge balance
                                       pe  =   3.000      Adjusted to redox equilibrium
                        Activity of water  =   0.997
                           Ionic strength  =   1.000e-01
                       Mass of water (kg)  =   1.000e+00
                 Total alkalinity (eq/kg)  =   5.873e-18
                    Total carbon (mol/kg)  =   0.000e+00
                       Total CO2 (mol/kg)  =   0.000e+00
                         Temperature (°C)  =  25.00
                  Electrical balance (eq)  =  -6.720e-14
 Percent error, 100*(Cat-|An|)/(Cat+|An|)  =  -0.00
                               Iterations  =   1
                                  Total H  = 1.110124e+02
                                  Total O  = 5.550622e+01

----------------------------Distribution of species----------------------------

                                               Log       Log       Log    mole V
   Species          Molality    Activity  Molality  Activity     Gamma   cmł/mol

   OH-             1.260e-07   9.595e-08    -6.900    -7.018    -0.118     (0)  
   H+              1.260e-07   1.040e-07    -6.900    -6.983    -0.083      0.00
   H2O             5.551e+01   9.966e-01     1.744    -0.001     0.000     18.07
Cl            1.000e-01
   Cl-             1.000e-01   7.642e-02    -1.000    -1.117    -0.117     (0)  
H(0)          1.496e-23
   H2              7.480e-24   7.654e-24   -23.126   -23.116     0.010     (0)  
Hdo           3.300e-14
   Hdo             3.300e-14   3.377e-14   -13.481   -13.471     0.010     (0)  
Hto           3.300e-14
   Hto             3.300e-14   3.377e-14   -13.481   -13.471     0.010     (0)  
I             3.300e-14
   I-              3.300e-14   2.578e-14   -13.481   -13.589    -0.107     (0)  
Na            1.000e-01
   Na+             1.000e-01   7.826e-02    -1.000    -1.106    -0.106     (0)  
Nat           3.300e-14
   Nat+            3.300e-14   2.578e-14   -13.481   -13.589    -0.107     (0)  
O(0)          0.000e+00
   O2              0.000e+00   0.000e+00   -46.161   -46.151     0.010     (0)  

------------------------------Saturation indices-------------------------------

  Phase               SI** log IAP   log K(298 K,   1 atm)

  H2(g)           -19.97    -23.12   -3.15  H2
  H2O(g)           -1.51     -0.00    1.51  H2O
  Halite           -3.81     -2.22    1.58  NaCl
  Hdo              -0.47    -13.47  -13.00  Hdo
  Hto              -0.47    -13.47  -13.00  Hto
  I                -1.70    -14.70  -13.00  NaI
  Nat              -1.71    -14.71  -13.00  NatCl
  O2(g)           -43.26    -46.15   -2.89  O2

**For a gas, SI = log10(fugacity). Fugacity = pressure * phi / 1 atm.
  For ideal gases, phi = 1.

------------------
End of simulation.
------------------

------------------------------------
Reading input data for simulation 4.
------------------------------------

	SURFACE_MASTER_SPECIES
	 Su Su-
	SURFACE_SPECIES
	        Su- = Su-
	SURFACE 1
	   equilibrate 1
	  Su  0.1  1e-3  1
	 donnan  1e-0
	SURFACE 2
	   equilibrate 2
	  Su  0.1  1e-3  1
	 donnan  1e-0
	SURFACE 3
	   equilibrate 3
	  Su  0.1  1e-3  1
	 donnan  1e-0
	END
------------------------------------------------------
Beginning of initial surface-composition calculations.
------------------------------------------------------

Surface 1.	

Diffuse Double Layer Surface-Complexation Model

Su            
	 -6.597e-13  Surface + diffuse layer charge, eq
	 -1.000e-01  Surface charge, eq
	 -9.649e+06  sigma, C/m˛
	 -1.031e+00  psi, V
	  4.014e+01  -F*psi/RT
	  2.706e+17  exp(-F*psi/RT)
	  1.000e-03  specific area, m˛/g
	  1.000e-03  m˛ for   1.000e+00 g

	Water in diffuse layer: 1.000e+00 kg, 100.0% of total DDL-water.

	Total moles in diffuse layer (excluding water), Donnan calculation.
	Donnan Layer potential, psi_DL = -1.236e-02 V.
	Boltzmann factor, exp(-psi_DL * F / RT) = 1.618e+00 (= c_DL / c_free if z is +1).

	Element       	     Moles
	Cl            	  6.1804e-02
	H             	  2.8171e-07
	Hdo           	  6.6000e-07
	Hto           	  6.6000e-07
	I             	  4.0790e-07
	Na            	  1.6180e-01
	Nat           	  1.0679e-06
	O             	  7.7862e-08

Su            
	  1.000e-01  moles
	                                   Mole                     Log
	Species               Moles    Fraction    Molality    Molality

	Su-               1.000e-01       1.000   1.000e-01      -1.000

Surface 2.	

Diffuse Double Layer Surface-Complexation Model

Su            
	 -6.602e-13  Surface + diffuse layer charge, eq
	 -1.000e-01  Surface charge, eq
	 -9.649e+06  sigma, C/m˛
	 -1.031e+00  psi, V
	  4.014e+01  -F*psi/RT
	  2.706e+17  exp(-F*psi/RT)
	  1.000e-03  specific area, m˛/g
	  1.000e-03  m˛ for   1.000e+00 g

	Water in diffuse layer: 1.000e+00 kg, 100.0% of total DDL-water.

	Total moles in diffuse layer (excluding water), Donnan calculation.
	Donnan Layer potential, psi_DL = -1.236e-02 V.
	Boltzmann factor, exp(-psi_DL * F / RT) = 1.618e+00 (= c_DL / c_free if z is +1).

	Element       	     Moles
	Cl            	  6.1804e-02
	H             	  2.8171e-07
	Hdo           	  3.3000e-07
	Hto           	  3.3000e-07
	I             	  2.0395e-07
	Na            	  1.6180e-01
	Nat           	  5.3395e-07
	O             	  7.7862e-08

Su            
	  1.000e-01  moles
	                                   Mole                     Log
	Species               Moles    Fraction    Molality    Molality

	Su-               1.000e-01       1.000   1.000e-01      -1.000

Surface 3.	

Diffuse Double Layer Surface-Complexation Model

Su            
	 -6.601e-13  Surface + diffuse layer charge, eq
	 -1.000e-01  Surface charge, eq
	 -9.649e+06  sigma, C/m˛
	 -1.031e+00  psi, V
	  4.014e+01  -F*psi/RT
	  2.706e+17  exp(-F*psi/RT)
	  1.000e-03  specific area, m˛/g
	  1.000e-03  m˛ for   1.000e+00 g

	Water in diffuse layer: 1.000e+00 kg, 100.0% of total DDL-water.

	Total moles in diffuse layer (excluding water), Donnan calculation.
	Donnan Layer potential, psi_DL = -1.236e-02 V.
	Boltzmann factor, exp(-psi_DL * F / RT) = 1.618e+00 (= c_DL / c_free if z is +1).

	Element       	     Moles
	Cl            	  6.1803e-02
	H             	  2.8171e-07
	Hdo           	  3.3000e-14
	Hto           	  3.3000e-14
	I             	  2.0395e-14
	Na            	  1.6180e-01
	Nat           	  5.3395e-14
	O             	  7.7862e-08

Su            
	  1.000e-01  moles
	                                   Mole                     Log
	Species               Moles    Fraction    Molality    Molality

	Su-               1.000e-01       1.000   1.000e-01      -1.000

------------------
End of simulation.
------------------

------------------------------------
Reading input data for simulation 5.
------------------------------------

	TRANSPORT
	 cells 3
	 lengths 1e-2 1e-2
	 bcond 1 2
	 shifts 10 0
	 punch_cells 3
	 timest 3 day 1
	 multi_d true 1e-9 1 0.0 1.0
	USER_GRAPH 1 harmonic mean solution for MCD through free water and EDL
WARNING: Cell-lengths were read for 2 cells. Last value is used till cell 3.
WARNING: No dispersivities were read; disp = 0 assumed.
	 -axis_t "Time / days" "mass transfer relative to HTO/ (mol/mol)"
	 -head 22Na+ HDO I- PHREEQC    
	 -plot_c time
	 -start
	10  Na = 0.1 : Su = 0.1 : dl_aq_i = 1 : t = Su / dl_aq_i : Bm = (t + (t^2 + 4 * Na^2)^0.5) / (2 * Na) # : if step_no = 1 then print Bm
	20  # i_cell...
	30  h_i = 1e-2 : aq_i = 1 : aqt_i = aq_i + dl_aq_i : f_free_i = aq_i / aqt_i
	40  A_i = aqt_i / h_i : G_i = 1 : Dw = 1e-9 : b_i = A_i / (G_i * h_i / 2) 
	50  b_i_cat = b_i * (f_free_i + (1 - f_free_i) * Bm) : b_i_ani = b_i * (f_free_i + (1 - f_free_i) / Bm)
	60  # j_cell...
	62  Na = 0.1 : Su = 0.1 : dl_aq_j = 1 : t = Su / dl_aq_j : Bm = (t + (t^2 + 4 * Na^2)^0.5) / (2 * Na) # : if step_no = 1 then print Bm
	70  h_j = 1e-2 : aq_j = 1 : aqt_j = aq_j + dl_aq_j : f_free_j = aq_j / aqt_j
	80  A_j = aqt_j / h_j : G_j = 1 : Dw = 1e-9 : b_j = A_j / (G_j * h_j / 2) 
	90  b_j_cat = b_j * (f_free_j + (1 - f_free_j) * Bm) : b_j_ani = b_j * (f_free_j + (1 - f_free_j) / Bm)
	100 # b_ij...
	110 b_ij_HTO = b_i * b_j / (b_i + b_j)
	120 b_ij_Na = b_i_cat * b_j_cat / (b_i_cat + b_j_cat) : b_ij_I = b_i_ani * b_j_ani / (b_i_ani + b_j_ani)
	130 # graph...
	140 t = total_time / (3600 * 24)
	150 plot_xy t, b_ij_Na / b_ij_HTO, symbol = None, color = Red
	160 plot_xy t, 1,                  symbol = None, color = Green
	170 plot_xy t, b_ij_I  / b_ij_HTO, symbol = None, color = Blue
	180 DDt = total_time - get(1) : Nat = equi("Nat") - get(2) : It = equi("I") - get(3) : Htot = equi("Hto") - get(4) : Hdot = equi("Hdo") - get(5)
	190 # graph...
	200 plot_xy t, Nat / HTOt, line_width = 0, color = Red   , y_axis = 1
	210 plot_xy t, Hdot / HTOt,line_width = 0, color = Green , y_axis = 1
	220 plot_xy t, It / HTOt,  line_width = 0, color = Blue  , y_axis = 1
	230 put(total_time, 1) : put(equi("Nat"), 2) : put(equi("I"), 3) : put(equi("Hto"), 4) : put(equi("Hdo"), 5)
	 -end
	END
------------------------------------
Beginning of transport calculations.
------------------------------------

-------------------------------
Equilibrating initial solutions
-------------------------------

Using solution 1.	
Using surface 1.	

------------------------------Surface composition------------------------------

Diffuse Double Layer Surface-Complexation Model

Su            
	 -6.120e-13  Surface + diffuse layer charge, eq
	 -1.000e-01  Surface charge, eq
	 -9.649e+06  sigma, C/m˛
	 -1.031e+00  psi, V
	  4.014e+01  -F*psi/RT
	  2.706e+17  exp(-F*psi/RT)
	  1.000e-03  specific area, m˛/g
	  1.000e-03  m˛ for   1.000e+00 g

	Water in diffuse layer: 1.000e+00 kg, 100.0% of total DDL-water.

	Total moles in diffuse layer (excluding water), Donnan calculation.
	Donnan Layer potential, psi_DL = -1.236e-02 V.
	Boltzmann factor, exp(-psi_DL * F / RT) = 1.618e+00 (= c_DL / c_free if z is +1).

	Element       	     Moles
	Cl            	  6.1804e-02
	H             	  2.8171e-07
	Hdo           	  6.6000e-07
	Hto           	  6.6000e-07
	I             	  4.0790e-07
	Na            	  1.6180e-01
	Nat           	  1.0679e-06
	O             	  7.7862e-08

Su            
	  1.000e-01  moles
	                                   Mole                     Log
	Species               Moles    Fraction    Molality    Molality

	Su-               1.000e-01       1.000   1.000e-01      -1.000

-----------------------------Solution composition------------------------------

	Elements           Molality       Moles

	Cl                1.000e-01   1.000e-01
	Hdo               6.600e-07   6.600e-07
	Hto               6.600e-07   6.600e-07
	I                 6.600e-07   6.600e-07
	Na                1.000e-01   1.000e-01
	Nat               6.600e-07   6.600e-07

----------------------------Description of solution----------------------------

                                       pH  =   6.983      Charge balance
                                       pe  =   3.000      Adjusted to redox equilibrium
                        Activity of water  =   0.997
                           Ionic strength  =   1.000e-01
                       Mass of water (kg)  =   1.000e+00
                 Total alkalinity (eq/kg)  =  -2.391e-18
                    Total carbon (mol/kg)  =   0.000e+00
                       Total CO2 (mol/kg)  =   0.000e+00
                         Temperature (°C)  =  25.00
                  Electrical balance (eq)  =  -6.723e-14
 Percent error, 100*(Cat-|An|)/(Cat+|An|)  =  -0.00
                               Iterations  =   0
                                  Total H  = 1.110124e+02
                                  Total O  = 5.550622e+01

----------------------------Distribution of species----------------------------

                                               Log       Log       Log    mole V
   Species          Molality    Activity  Molality  Activity     Gamma   cmł/mol

   H+              1.260e-07   1.040e-07    -6.900    -6.983    -0.083      0.00
   OH-             1.260e-07   9.595e-08    -6.900    -7.018    -0.118     (0)  
   H2O             5.551e+01   9.966e-01     1.744    -0.001     0.000     18.07
Cl            1.000e-01
   Cl-             1.000e-01   7.642e-02    -1.000    -1.117    -0.117     (0)  
H(0)          1.496e-23
   H2              7.480e-24   7.654e-24   -23.126   -23.116     0.010     (0)  
Hdo           6.600e-07
   Hdo             6.600e-07   6.754e-07    -6.180    -6.170     0.010     (0)  
Hto           6.600e-07
   Hto             6.600e-07   6.754e-07    -6.180    -6.170     0.010     (0)  
I             6.600e-07
   I-              6.600e-07   5.156e-07    -6.180    -6.288    -0.107     (0)  
Na            1.000e-01
   Na+             1.000e-01   7.826e-02    -1.000    -1.106    -0.106     (0)  
Nat           6.600e-07
   Nat+            6.600e-07   5.156e-07    -6.180    -6.288    -0.107     (0)  
O(0)          0.000e+00
   O2              0.000e+00   0.000e+00   -46.161   -46.151     0.010     (0)  

------------------------------Saturation indices-------------------------------

  Phase               SI** log IAP   log K(298 K,   1 atm)

  H2(g)           -19.97    -23.12   -3.15  H2
  H2O(g)           -1.51     -0.00    1.51  H2O
  Halite           -3.81     -2.22    1.58  NaCl
  Hdo               6.83     -6.17  -13.00  Hdo
  Hto               6.83     -6.17  -13.00  Hto
  I                 5.61     -7.39  -13.00  NaI
  Nat               5.60     -7.40  -13.00  NatCl
  O2(g)           -43.26    -46.15   -2.89  O2

**For a gas, SI = log10(fugacity). Fugacity = pressure * phi / 1 atm.
  For ideal gases, phi = 1.

Using solution 2.	
Using surface 2.	

------------------------------Surface composition------------------------------

Diffuse Double Layer Surface-Complexation Model

Su            
	 -6.122e-13  Surface + diffuse layer charge, eq
	 -1.000e-01  Surface charge, eq
	 -9.649e+06  sigma, C/m˛
	 -1.031e+00  psi, V
	  4.014e+01  -F*psi/RT
	  2.706e+17  exp(-F*psi/RT)
	  1.000e-03  specific area, m˛/g
	  1.000e-03  m˛ for   1.000e+00 g

	Water in diffuse layer: 1.000e+00 kg, 100.0% of total DDL-water.

	Total moles in diffuse layer (excluding water), Donnan calculation.
	Donnan Layer potential, psi_DL = -1.236e-02 V.
	Boltzmann factor, exp(-psi_DL * F / RT) = 1.618e+00 (= c_DL / c_free if z is +1).

	Element       	     Moles
	Cl            	  6.1804e-02
	H             	  2.8171e-07
	Hdo           	  3.3000e-07
	Hto           	  3.3000e-07
	I             	  2.0395e-07
	Na            	  1.6180e-01
	Nat           	  5.3395e-07
	O             	  7.7862e-08

Su            
	  1.000e-01  moles
	                                   Mole                     Log
	Species               Moles    Fraction    Molality    Molality

	Su-               1.000e-01       1.000   1.000e-01      -1.000

-----------------------------Solution composition------------------------------

	Elements           Molality       Moles

	Cl                1.000e-01   1.000e-01
	Hdo               3.300e-07   3.300e-07
	Hto               3.300e-07   3.300e-07
	I                 3.300e-07   3.300e-07
	Na                1.000e-01   1.000e-01
	Nat               3.300e-07   3.300e-07

----------------------------Description of solution----------------------------

                                       pH  =   6.983      Charge balance
                                       pe  =   3.000      Adjusted to redox equilibrium
                        Activity of water  =   0.997
                           Ionic strength  =   1.000e-01
                       Mass of water (kg)  =   1.000e+00
                 Total alkalinity (eq/kg)  =  -5.527e-18
                    Total carbon (mol/kg)  =   0.000e+00
                       Total CO2 (mol/kg)  =   0.000e+00
                         Temperature (°C)  =  25.00
                  Electrical balance (eq)  =  -6.727e-14
 Percent error, 100*(Cat-|An|)/(Cat+|An|)  =  -0.00
                               Iterations  =   0
                                  Total H  = 1.110124e+02
                                  Total O  = 5.550622e+01

----------------------------Distribution of species----------------------------

                                               Log       Log       Log    mole V
   Species          Molality    Activity  Molality  Activity     Gamma   cmł/mol

   H+              1.260e-07   1.040e-07    -6.900    -6.983    -0.083      0.00
   OH-             1.260e-07   9.595e-08    -6.900    -7.018    -0.118     (0)  
   H2O             5.551e+01   9.966e-01     1.744    -0.001     0.000     18.07
Cl            1.000e-01
   Cl-             1.000e-01   7.642e-02    -1.000    -1.117    -0.117     (0)  
H(0)          1.496e-23
   H2              7.480e-24   7.654e-24   -23.126   -23.116     0.010     (0)  
Hdo           3.300e-07
   Hdo             3.300e-07   3.377e-07    -6.481    -6.471     0.010     (0)  
Hto           3.300e-07
   Hto             3.300e-07   3.377e-07    -6.481    -6.471     0.010     (0)  
I             3.300e-07
   I-              3.300e-07   2.578e-07    -6.481    -6.589    -0.107     (0)  
Na            1.000e-01
   Na+             1.000e-01   7.826e-02    -1.000    -1.106    -0.106     (0)  
Nat           3.300e-07
   Nat+            3.300e-07   2.578e-07    -6.481    -6.589    -0.107     (0)  
O(0)          0.000e+00
   O2              0.000e+00   0.000e+00   -46.161   -46.151     0.010     (0)  

------------------------------Saturation indices-------------------------------

  Phase               SI** log IAP   log K(298 K,   1 atm)

  H2(g)           -19.97    -23.12   -3.15  H2
  H2O(g)           -1.51     -0.00    1.51  H2O
  Halite           -3.81     -2.22    1.58  NaCl
  Hdo               6.53     -6.47  -13.00  Hdo
  Hto               6.53     -6.47  -13.00  Hto
  I                 5.30     -7.70  -13.00  NaI
  Nat               5.29     -7.71  -13.00  NatCl
  O2(g)           -43.26    -46.15   -2.89  O2

**For a gas, SI = log10(fugacity). Fugacity = pressure * phi / 1 atm.
  For ideal gases, phi = 1.

Using solution 3.	Solution after simulation 3.
Using surface 3.	
Using pure phase assemblage 3.	

-------------------------------Phase assemblage--------------------------------

                                                      Moles in assemblage
Phase               SI  log IAP  log K(T, P)   Initial       Final       Delta

Hdo              -0.47   -13.47    -13.00    0.000e+00               0.000e+00
Hto              -0.47   -13.47    -13.00    0.000e+00               0.000e+00
I                -1.70   -14.70    -13.00    0.000e+00               0.000e+00
Nat              -1.71   -14.71    -13.00    0.000e+00               0.000e+00

------------------------------Surface composition------------------------------

Diffuse Double Layer Surface-Complexation Model

Su            
	 -5.463e-13  Surface + diffuse layer charge, eq
	 -1.000e-01  Surface charge, eq
	 -9.649e+06  sigma, C/m˛
	 -1.031e+00  psi, V
	  4.014e+01  -F*psi/RT
	  2.706e+17  exp(-F*psi/RT)
	  1.000e-03  specific area, m˛/g
	  1.000e-03  m˛ for   1.000e+00 g

	Water in diffuse layer: 1.000e+00 kg, 100.0% of total DDL-water.

	Total moles in diffuse layer (excluding water), Donnan calculation.
	Donnan Layer potential, psi_DL = -1.236e-02 V.
	Boltzmann factor, exp(-psi_DL * F / RT) = 1.618e+00 (= c_DL / c_free if z is +1).

	Element       	     Moles
	Cl            	  6.1803e-02
	H             	  2.8171e-07
	Hdo           	  3.3000e-14
	Hto           	  3.3000e-14
	I             	  2.0395e-14
	Na            	  1.6180e-01
	Nat           	  5.3395e-14
	O             	  7.7862e-08

Su            
	  1.000e-01  moles
	                                   Mole                     Log
	Species               Moles    Fraction    Molality    Molality

	Su-               1.000e-01       1.000   1.000e-01      -1.000

-----------------------------Solution composition------------------------------

	Elements           Molality       Moles

	Cl                1.000e-01   1.000e-01
	Hdo               3.300e-14   3.300e-14
	Hto               3.300e-14   3.300e-14
	I                 3.300e-14   3.300e-14
	Na                1.000e-01   1.000e-01
	Nat               3.300e-14   3.300e-14

----------------------------Description of solution----------------------------

                                       pH  =   6.983      Charge balance
                                       pe  =   3.300      Adjusted to redox equilibrium
                        Activity of water  =   0.997
                           Ionic strength  =   1.000e-01
                       Mass of water (kg)  =   1.000e+00
                 Total alkalinity (eq/kg)  =   5.872e-18
                    Total carbon (mol/kg)  =   0.000e+00
                       Total CO2 (mol/kg)  =   0.000e+00
                         Temperature (°C)  =  25.00
                  Electrical balance (eq)  =  -6.739e-14
 Percent error, 100*(Cat-|An|)/(Cat+|An|)  =  -0.00
                               Iterations  =   1
                                  Total H  = 1.110124e+02
                                  Total O  = 5.550622e+01

----------------------------Distribution of species----------------------------

                                               Log       Log       Log    mole V
   Species          Molality    Activity  Molality  Activity     Gamma   cmł/mol

   OH-             1.260e-07   9.595e-08    -6.900    -7.018    -0.118     (0)  
   H+              1.260e-07   1.040e-07    -6.900    -6.983    -0.083      0.00
   H2O             5.551e+01   9.966e-01     1.744    -0.001     0.000     18.07
Cl            1.000e-01
   Cl-             1.000e-01   7.642e-02    -1.000    -1.117    -0.117     (0)  
H(0)          3.758e-24
   H2              1.879e-24   1.923e-24   -23.726   -23.716     0.010     (0)  
Hdo           3.300e-14
   Hdo             3.300e-14   3.377e-14   -13.481   -13.471     0.010     (0)  
Hto           3.300e-14
   Hto             3.300e-14   3.377e-14   -13.481   -13.471     0.010     (0)  
I             3.300e-14
   I-              3.300e-14   2.578e-14   -13.481   -13.589    -0.107     (0)  
Na            1.000e-01
   Na+             1.000e-01   7.826e-02    -1.000    -1.106    -0.106     (0)  
Nat           3.300e-14
   Nat+            3.300e-14   2.578e-14   -13.481   -13.589    -0.107     (0)  
O(0)          0.000e+00
   O2              0.000e+00   0.000e+00   -44.961   -44.951     0.010     (0)  

------------------------------Saturation indices-------------------------------

  Phase               SI** log IAP   log K(298 K,   1 atm)

  H2(g)           -20.57    -23.72   -3.15  H2
  H2O(g)           -1.51     -0.00    1.51  H2O
  Halite           -3.81     -2.22    1.58  NaCl
  Hdo              -0.47    -13.47  -13.00  Hdo
  Hto              -0.47    -13.47  -13.00  Hto
  I                -1.70    -14.70  -13.00  NaI
  Nat              -1.71    -14.71  -13.00  NatCl
  O2(g)           -42.06    -44.95   -2.89  O2

**For a gas, SI = log10(fugacity). Fugacity = pressure * phi / 1 atm.
  For ideal gases, phi = 1.

Time:           0
Chemistry cell: 1
Grid cell(s):   1 
------------------------------------
Reading input data for simulation 1.
------------------------------------

	RUN_CELLS
	  -start_time -21600
	  -time_step  21600
	  -cells      1
	END
--------------------------
Beginning of run as cells.
--------------------------

-----------------------------------------
Beginning of batch-reaction calculations.
-----------------------------------------

Reaction step 1.

Using solution 1.	Solution after simulation 5.
Using surface 1.	

------------------------------Surface composition------------------------------

Diffuse Double Layer Surface-Complexation Model

Su            
	  1.354e-11  Surface + diffuse layer charge, eq
	 -1.000e-01  Surface charge, eq
	 -9.649e+06  sigma, C/m˛
	 -1.031e+00  psi, V
	  4.014e+01  -F*psi/RT
	  2.706e+17  exp(-F*psi/RT)
	  1.000e-03  specific area, m˛/g
	  1.000e-03  m˛ for   1.000e+00 g

	Water in diffuse layer: 1.000e+00 kg, 100.0% of total DDL-water.

	Total moles in diffuse layer (excluding water), Donnan calculation.
	Donnan Layer potential, psi_DL = -1.236e-02 V.
	Boltzmann factor, exp(-psi_DL * F / RT) = 1.618e+00 (= c_DL / c_free if z is +1).

	Element       	     Moles
	Cl            	  6.1804e-02
	H             	  2.8171e-07
	Hdo           	  7.3560e-07
	Hto           	  7.3560e-07
	I             	  4.5463e-07
	Na            	  1.6180e-01
	Nat           	  1.1902e-06
	O             	  7.7862e-08

Su            
	  1.000e-01  moles
	                                   Mole                     Log
	Species               Moles    Fraction    Molality    Molality

	Su-               1.000e-01       1.000   1.000e-01      -1.000

-----------------------------Solution composition------------------------------

	Elements           Molality       Moles

	Cl                1.000e-01   1.000e-01
	Hdo               7.356e-07   7.356e-07
	Hto               7.356e-07   7.356e-07
	I                 7.356e-07   7.356e-07
	Na                1.000e-01   1.000e-01
	Nat               7.356e-07   7.356e-07

----------------------------Description of solution----------------------------

                                       pH  =   6.983      Charge balance
                                       pe  =  10.846      Adjusted to redox equilibrium
                        Activity of water  =   0.997
                           Ionic strength  =   1.000e-01
                       Mass of water (kg)  =   1.000e+00
                 Total alkalinity (eq/kg)  =  -7.352e-15
                    Total carbon (mol/kg)  =   0.000e+00
                       Total CO2 (mol/kg)  =   0.000e+00
                         Temperature (°C)  =  25.00
                  Electrical balance (eq)  =  -6.792e-13
 Percent error, 100*(Cat-|An|)/(Cat+|An|)  =  -0.00
                               Iterations  =   0
                                  Total H  = 1.110124e+02
                                  Total O  = 5.550622e+01

----------------------------Distribution of species----------------------------

                                               Log       Log       Log    mole V
   Species          Molality    Activity  Molality  Activity     Gamma   cmł/mol

   H+              1.260e-07   1.040e-07    -6.900    -6.983    -0.083      0.00
   OH-             1.260e-07   9.595e-08    -6.900    -7.018    -0.118     (0)  
   H2O             5.551e+01   9.966e-01     1.744    -0.001     0.000     18.07
Cl            1.000e-01
   Cl-             1.000e-01   7.642e-02    -1.000    -1.117    -0.117     (0)  
H(0)          3.041e-39
   H2              1.520e-39   1.556e-39   -38.818   -38.808     0.010     (0)  
Hdo           7.356e-07
   Hdo             7.356e-07   7.527e-07    -6.133    -6.123     0.010     (0)  
Hto           7.356e-07
   Hto             7.356e-07   7.527e-07    -6.133    -6.123     0.010     (0)  
I             7.356e-07
   I-              7.356e-07   5.747e-07    -6.133    -6.241    -0.107     (0)  
Na            1.000e-01
   Na+             1.000e-01   7.826e-02    -1.000    -1.106    -0.106     (0)  
Nat           7.356e-07
   Nat+            7.356e-07   5.747e-07    -6.133    -6.241    -0.107     (0)  
O(0)          3.343e-15
   O2              1.672e-15   1.711e-15   -14.777   -14.767     0.010     (0)  

------------------------------Saturation indices-------------------------------

  Phase               SI** log IAP   log K(298 K,   1 atm)

  H2(g)           -35.66    -38.81   -3.15  H2
  H2O(g)           -1.51     -0.00    1.51  H2O
  Halite           -3.81     -2.22    1.58  NaCl
  Hdo               6.88     -6.12  -13.00  Hdo
  Hto               6.88     -6.12  -13.00  Hto
  I                 5.65     -7.35  -13.00  NaI
  Nat               5.64     -7.36  -13.00  NatCl
  O2(g)           -11.87    -14.77   -2.89  O2

**For a gas, SI = log10(fugacity). Fugacity = pressure * phi / 1 atm.
  For ideal gases, phi = 1.

------------------
End of simulation.
------------------

------------------------------------
Reading input data for simulation 2.
------------------------------------

-------------------------------
End of Run after 1.761 Seconds.
-------------------------------

Time:           0
Chemistry cell: 2
Grid cell(s):   2 
------------------------------------
Reading input data for simulation 1.
------------------------------------

	RUN_CELLS
	  -start_time -21600
	  -time_step  21600
	  -cells      2
	END
--------------------------
Beginning of run as cells.
--------------------------

-----------------------------------------
Beginning of batch-reaction calculations.
-----------------------------------------

Reaction step 1.

Using solution 2.	Solution after simulation 5.
Using surface 2.	

------------------------------Surface composition------------------------------

Diffuse Double Layer Surface-Complexation Model

Su            
	 -4.287e-14  Surface + diffuse layer charge, eq
	 -1.000e-01  Surface charge, eq
	 -9.649e+06  sigma, C/m˛
	 -1.031e+00  psi, V
	  4.014e+01  -F*psi/RT
	  2.706e+17  exp(-F*psi/RT)
	  1.000e-03  specific area, m˛/g
	  1.000e-03  m˛ for   1.000e+00 g

	Water in diffuse layer: 1.000e+00 kg, 100.0% of total DDL-water.

	Total moles in diffuse layer (excluding water), Donnan calculation.
	Donnan Layer potential, psi_DL = -1.236e-02 V.
	Boltzmann factor, exp(-psi_DL * F / RT) = 1.618e+00 (= c_DL / c_free if z is +1).

	Element       	     Moles
	Cl            	  6.1804e-02
	H             	  2.8171e-07
	Hdo           	  3.3000e-07
	Hto           	  3.3000e-07
	I             	  2.0395e-07
	Na            	  1.6180e-01
	Nat           	  5.3395e-07
	O             	  7.7862e-08

Su            
	  1.000e-01  moles
	                                   Mole                     Log
	Species               Moles    Fraction    Molality    Molality

	Su-               1.000e-01       1.000   1.000e-01      -1.000

-----------------------------Solution composition------------------------------

	Elements           Molality       Moles

	Cl                1.000e-01   1.000e-01
	Hdo               3.300e-07   3.300e-07
	Hto               3.300e-07   3.300e-07
	I                 3.300e-07   3.300e-07
	Na                1.000e-01   1.000e-01
	Nat               3.300e-07   3.300e-07

----------------------------Description of solution----------------------------

                                       pH  =   6.983      Charge balance
                                       pe  =  10.712      Adjusted to redox equilibrium
                        Activity of water  =   0.997
                           Ionic strength  =   1.000e-01
                       Mass of water (kg)  =   1.000e+00
                 Total alkalinity (eq/kg)  =  -3.564e-15
                    Total carbon (mol/kg)  =   0.000e+00
                       Total CO2 (mol/kg)  =   0.000e+00
                         Temperature (°C)  =  25.00
                  Electrical balance (eq)  =  -6.794e-13
 Percent error, 100*(Cat-|An|)/(Cat+|An|)  =  -0.00
                               Iterations  =   0
                                  Total H  = 1.110124e+02
                                  Total O  = 5.550622e+01

----------------------------Distribution of species----------------------------

                                               Log       Log       Log    mole V
   Species          Molality    Activity  Molality  Activity     Gamma   cmł/mol

   H+              1.260e-07   1.040e-07    -6.900    -6.983    -0.083      0.00
   OH-             1.260e-07   9.595e-08    -6.900    -7.018    -0.118     (0)  
   H2O             5.551e+01   9.966e-01     1.744    -0.001     0.000     18.07
Cl            1.000e-01
   Cl-             1.000e-01   7.642e-02    -1.000    -1.117    -0.117     (0)  
H(0)          5.642e-39
   H2              2.821e-39   2.887e-39   -38.550   -38.540     0.010     (0)  
Hdo           3.300e-07
   Hdo             3.300e-07   3.377e-07    -6.481    -6.471     0.010     (0)  
Hto           3.300e-07
   Hto             3.300e-07   3.377e-07    -6.481    -6.471     0.010     (0)  
I             3.300e-07
   I-              3.300e-07   2.578e-07    -6.481    -6.589    -0.107     (0)  
Na            1.000e-01
   Na+             1.000e-01   7.826e-02    -1.000    -1.106    -0.106     (0)  
Nat           3.300e-07
   Nat+            3.300e-07   2.578e-07    -6.481    -6.589    -0.107     (0)  
O(0)          9.710e-16
   O2              4.855e-16   4.968e-16   -15.314   -15.304     0.010     (0)  

------------------------------Saturation indices-------------------------------

  Phase               SI** log IAP   log K(298 K,   1 atm)

  H2(g)           -35.39    -38.54   -3.15  H2
  H2O(g)           -1.51     -0.00    1.51  H2O
  Halite           -3.81     -2.22    1.58  NaCl
  Hdo               6.53     -6.47  -13.00  Hdo
  Hto               6.53     -6.47  -13.00  Hto
  I                 5.30     -7.70  -13.00  NaI
  Nat               5.29     -7.71  -13.00  NatCl
  O2(g)           -12.41    -15.30   -2.89  O2

**For a gas, SI = log10(fugacity). Fugacity = pressure * phi / 1 atm.
  For ideal gases, phi = 1.

------------------
End of simulation.
------------------

------------------------------------
Reading input data for simulation 2.
------------------------------------

-------------------------------
End of Run after 1.762 Seconds.
-------------------------------

Time:           0
Chemistry cell: 3
Grid cell(s):   3 
------------------------------------
Reading input data for simulation 1.
------------------------------------

	RUN_CELLS
	  -start_time -21600
	  -time_step  21600
	  -cells      3
	END
--------------------------
Beginning of run as cells.
--------------------------

-----------------------------------------
Beginning of batch-reaction calculations.
-----------------------------------------

Reaction step 1.

Using solution 3.	Solution after simulation 5.
Using surface 3.	
Using pure phase assemblage 3.	Pure-phase assemblage after simulation 5.

-------------------------------Phase assemblage--------------------------------

                                                      Moles in assemblage
Phase               SI  log IAP  log K(T, P)   Initial       Final       Delta

Hdo               0.00   -13.00    -13.00    0.000e+00   1.426e-07   1.426e-07
Hto               0.00   -13.00    -13.00    0.000e+00   1.426e-07   1.426e-07
I                 0.00   -13.00    -13.00    0.000e+00   1.153e-07   1.153e-07
Nat               0.00   -13.00    -13.00    0.000e+00   1.866e-07   1.866e-07

------------------------------Surface composition------------------------------

Diffuse Double Layer Surface-Complexation Model

Su            
	  6.739e-14  Surface + diffuse layer charge, eq
	 -1.000e-01  Surface charge, eq
	 -9.649e+06  sigma, C/m˛
	 -1.031e+00  psi, V
	  4.014e+01  -F*psi/RT
	  2.706e+17  exp(-F*psi/RT)
	  1.000e-03  specific area, m˛/g
	  1.000e-03  m˛ for   1.000e+00 g

	Water in diffuse layer: 1.000e+00 kg, 100.0% of total DDL-water.

	Total moles in diffuse layer (excluding water), Donnan calculation.
	Donnan Layer potential, psi_DL = -1.236e-02 V.
	Boltzmann factor, exp(-psi_DL * F / RT) = 1.618e+00 (= c_DL / c_free if z is +1).

	Element       	     Moles
	Cl            	  6.1803e-02
	H             	  2.8171e-07
	Hdo           	  9.7724e-14
	Hto           	  9.7724e-14
	I             	  1.0109e-12
	Na            	  1.6180e-01
	Nat           	  2.7102e-12
	O             	  7.7862e-08

Su            
	  1.000e-01  moles
	                                   Mole                     Log
	Species               Moles    Fraction    Molality    Molality

	Su-               1.000e-01       1.000   1.000e-01      -1.000

-----------------------------Solution composition------------------------------

	Elements           Molality       Moles

	Cl                1.000e-01   1.000e-01
	Hdo               9.772e-14   9.772e-14
	Hto               9.772e-14   9.772e-14
	I                 1.636e-12   1.636e-12
	Na                1.000e-01   1.000e-01
	Nat               1.675e-12   1.675e-12

----------------------------Description of solution----------------------------

                                       pH  =   6.983      Charge balance
                                       pe  =  -1.318      Adjusted to redox equilibrium
                        Activity of water  =   0.997
                           Ionic strength  =   1.000e-01
                       Mass of water (kg)  =   1.000e+00
                 Total alkalinity (eq/kg)  =   8.439e-14
                    Total carbon (mol/kg)  =   0.000e+00
                       Total CO2 (mol/kg)  =   0.000e+00
                         Temperature (°C)  =  25.00
                  Electrical balance (eq)  =  -6.137e-13
 Percent error, 100*(Cat-|An|)/(Cat+|An|)  =  -0.00
                               Iterations  =   1
                                  Total H  = 1.110124e+02
                                  Total O  = 5.550622e+01

----------------------------Distribution of species----------------------------

                                               Log       Log       Log    mole V
   Species          Molality    Activity  Molality  Activity     Gamma   cmł/mol

   OH-             1.260e-07   9.595e-08    -6.900    -7.018    -0.118     (0)  
   H+              1.260e-07   1.040e-07    -6.900    -6.983    -0.083      0.00
   H2O             5.551e+01   9.966e-01     1.744    -0.001     0.000     18.07
Cl            1.000e-01
   Cl-             1.000e-01   7.642e-02    -1.000    -1.117    -0.117     (0)  
H(0)          6.469e-15
   H2              3.235e-15   3.310e-15   -14.490   -14.480     0.010     (0)  
Hdo           9.772e-14
   Hdo             9.772e-14   1.000e-13   -13.010   -13.000     0.010     (0)  
Hto           9.772e-14
   Hto             9.772e-14   1.000e-13   -13.010   -13.000     0.010     (0)  
I             1.636e-12
   I-              1.636e-12   1.278e-12   -11.786   -11.894    -0.107     (0)  
Na            1.000e-01
   Na+             1.000e-01   7.826e-02    -1.000    -1.106    -0.106     (0)  
Nat           1.675e-12
   Nat+            1.675e-12   1.309e-12   -11.776   -11.883    -0.107     (0)  
O(0)          0.000e+00
   O2              0.000e+00   0.000e+00   -63.433   -63.423     0.010     (0)  

------------------------------Saturation indices-------------------------------

  Phase               SI** log IAP   log K(298 K,   1 atm)

  H2(g)           -11.33    -14.48   -3.15  H2
  H2O(g)           -1.51     -0.00    1.51  H2O
  Halite           -3.81     -2.22    1.58  NaCl
  Hdo               0.00    -13.00  -13.00  Hdo
  Hto               0.00    -13.00  -13.00  Hto
  I                 0.00    -13.00  -13.00  NaI
  Nat               0.00    -13.00  -13.00  NatCl
  O2(g)           -60.53    -63.42   -2.89  O2

**For a gas, SI = log10(fugacity). Fugacity = pressure * phi / 1 atm.
  For ideal gases, phi = 1.

------------------
End of simulation.
------------------

------------------------------------
Reading input data for simulation 2.
------------------------------------

-------------------------------
End of Run after 1.763 Seconds.
-------------------------------

Time:           0
Chemistry cell: 1
Grid cell(s):   1 
------------------------------------
Reading input data for simulation 1.
------------------------------------

	RUN_CELLS
	  -start_time -21600
	  -time_step  21600
	  -cells      1
	END
--------------------------
Beginning of run as cells.
--------------------------

-----------------------------------------
Beginning of batch-reaction calculations.
-----------------------------------------

Reaction step 1.

Using solution 1.	Solution after simulation 5.
Using surface 1.	

------------------------------Surface composition------------------------------

Diffuse Double Layer Surface-Complexation Model

Su            
	 -1.205e-14  Surface + diffuse layer charge, eq
	 -1.000e-01  Surface charge, eq
	 -9.649e+06  sigma, C/m˛
	 -1.031e+00  psi, V
	  4.014e+01  -F*psi/RT
	  2.706e+17  exp(-F*psi/RT)
	  1.000e-03  specific area, m˛/g
	  1.000e-03  m˛ for   1.000e+00 g

	Water in diffuse layer: 1.000e+00 kg, 100.0% of total DDL-water.

	Total moles in diffuse layer (excluding water), Donnan calculation.
	Donnan Layer potential, psi_DL = -1.236e-02 V.
	Boltzmann factor, exp(-psi_DL * F / RT) = 1.618e+00 (= c_DL / c_free if z is +1).

	Element       	     Moles
	Cl            	  6.1804e-02
	H             	  2.8182e-07
	Hdo           	  7.4891e-07
	Hto           	  7.4891e-07
	I             	  4.6479e-07
	Na            	  1.6180e-01
	Nat           	  1.2067e-06
	O             	  7.7872e-08

Su            
	  1.000e-01  moles
	                                   Mole                     Log
	Species               Moles    Fraction    Molality    Molality

	Su-               1.000e-01       1.000   1.000e-01      -1.000

-----------------------------Solution composition------------------------------

	Elements           Molality       Moles

	Cl                1.000e-01   1.000e-01
	Hdo               7.489e-07   7.489e-07
	Hto               7.489e-07   7.489e-07
	I                 7.520e-07   7.520e-07
	Na                1.000e-01   1.000e-01
	Nat               7.458e-07   7.458e-07

----------------------------Description of solution----------------------------

                                       pH  =   6.983      Charge balance
                                       pe  =  -3.469      Adjusted to redox equilibrium
                        Activity of water  =   0.997
                           Ionic strength  =   1.000e-01
                       Mass of water (kg)  =   1.000e+00
                 Total alkalinity (eq/kg)  =   3.100e-11
                    Total carbon (mol/kg)  =   0.000e+00
                       Total CO2 (mol/kg)  =   0.000e+00
                         Temperature (°C)  =  25.00
                  Electrical balance (eq)  =  -7.708e-11
 Percent error, 100*(Cat-|An|)/(Cat+|An|)  =  -0.00
                               Iterations  =   0
                                  Total H  = 1.110124e+02
                                  Total O  = 5.550622e+01

----------------------------Distribution of species----------------------------

                                               Log       Log       Log    mole V
   Species          Molality    Activity  Molality  Activity     Gamma   cmł/mol

   OH-             1.260e-07   9.596e-08    -6.900    -7.018    -0.118     (0)  
   H+              1.260e-07   1.040e-07    -6.900    -6.983    -0.083      0.00
   H2O             5.551e+01   9.966e-01     1.744    -0.001     0.000     18.07
Cl            1.000e-01
   Cl-             1.000e-01   7.642e-02    -1.000    -1.117    -0.117     (0)  
H(0)          1.298e-10
   H2              6.489e-11   6.640e-11   -10.188   -10.178     0.010     (0)  
Hdo           7.489e-07
   Hdo             7.489e-07   7.664e-07    -6.126    -6.116     0.010     (0)  
Hto           7.489e-07
   Hto             7.489e-07   7.664e-07    -6.126    -6.116     0.010     (0)  
I             7.520e-07
   I-              7.520e-07   5.875e-07    -6.124    -6.231    -0.107     (0)  
Na            1.000e-01
   Na+             1.000e-01   7.826e-02    -1.000    -1.106    -0.106     (0)  
Nat           7.458e-07
   Nat+            7.458e-07   5.826e-07    -6.127    -6.235    -0.107     (0)  
O(0)          0.000e+00
   O2              0.000e+00   0.000e+00   -72.037   -72.027     0.010     (0)  

------------------------------Saturation indices-------------------------------

  Phase               SI** log IAP   log K(298 K,   1 atm)

  H2(g)            -7.03    -10.18   -3.15  H2
  H2O(g)           -1.51     -0.00    1.51  H2O
  Halite           -3.81     -2.22    1.58  NaCl
  Hdo               6.88     -6.12  -13.00  Hdo
  Hto               6.88     -6.12  -13.00  Hto
  I                 5.66     -7.34  -13.00  NaI
  Nat               5.65     -7.35  -13.00  NatCl
  O2(g)           -69.13    -72.03   -2.89  O2

**For a gas, SI = log10(fugacity). Fugacity = pressure * phi / 1 atm.
  For ideal gases, phi = 1.

------------------
End of simulation.
------------------

------------------------------------
Reading input data for simulation 2.
------------------------------------

-------------------------------
End of Run after 1.817 Seconds.
-------------------------------

Time:           0
Chemistry cell: 2
Grid cell(s):   2 
------------------------------------
Reading input data for simulation 1.
------------------------------------

	RUN_CELLS
	  -start_time -21600
	  -time_step  21600
	  -cells      2
	END
--------------------------
Beginning of run as cells.
--------------------------

-----------------------------------------
Beginning of batch-reaction calculations.
-----------------------------------------

Reaction step 1.

Using solution 2.	Solution after simulation 5.
Using surface 2.	

------------------------------Surface composition------------------------------

Diffuse Double Layer Surface-Complexation Model

Su            
	  1.149e-09  Surface + diffuse layer charge, eq
	 -1.000e-01  Surface charge, eq
	 -9.649e+06  sigma, C/m˛
	 -1.031e+00  psi, V
	  4.014e+01  -F*psi/RT
	  2.706e+17  exp(-F*psi/RT)
	  1.000e-03  specific area, m˛/g
	  1.000e-03  m˛ for   1.000e+00 g

	Water in diffuse layer: 1.000e+00 kg, 100.0% of total DDL-water.

	Total moles in diffuse layer (excluding water), Donnan calculation.
	Donnan Layer potential, psi_DL = -1.236e-02 V.
	Boltzmann factor, exp(-psi_DL * F / RT) = 1.618e+00 (= c_DL / c_free if z is +1).

	Element       	     Moles
	Cl            	  6.1804e-02
	H             	  2.8171e-07
	Hdo           	  3.3816e-07
	Hto           	  3.3816e-07
	I             	  2.1019e-07
	Na            	  1.6180e-01
	Nat           	  5.4404e-07
	O             	  7.7875e-08

Su            
	  1.000e-01  moles
	                                   Mole                     Log
	Species               Moles    Fraction    Molality    Molality

	Su-               1.000e-01       1.000   1.000e-01      -1.000

-----------------------------Solution composition------------------------------

	Elements           Molality       Moles

	Cl                1.000e-01   1.000e-01
	Hdo               3.382e-07   3.382e-07
	Hto               3.382e-07   3.382e-07
	I                 3.401e-07   3.401e-07
	Na                1.000e-01   1.000e-01
	Nat               3.362e-07   3.362e-07

----------------------------Description of solution----------------------------

                                       pH  =   6.983      Charge balance
                                       pe  =  11.746      Adjusted to redox equilibrium
                        Activity of water  =   0.997
                           Ionic strength  =   1.000e-01
                       Mass of water (kg)  =   1.000e+00
                 Total alkalinity (eq/kg)  =  -1.177e-12
                    Total carbon (mol/kg)  =   0.000e+00
                       Total CO2 (mol/kg)  =   0.000e+00
                         Temperature (°C)  =  25.00
                  Electrical balance (eq)  =   5.454e-10
 Percent error, 100*(Cat-|An|)/(Cat+|An|)  =   0.00
                               Iterations  =   0
                                  Total H  = 1.110124e+02
                                  Total O  = 5.550622e+01

----------------------------Distribution of species----------------------------

                                               Log       Log       Log    mole V
   Species          Molality    Activity  Molality  Activity     Gamma   cmł/mol

   H+              1.260e-07   1.040e-07    -6.900    -6.983    -0.083      0.00
   OH-             1.260e-07   9.595e-08    -6.900    -7.018    -0.118     (0)  
   H2O             5.551e+01   9.966e-01     1.744    -0.001     0.000     18.07
Cl            1.000e-01
   Cl-             1.000e-01   7.642e-02    -1.000    -1.117    -0.117     (0)  
H(0)          0.000e+00
   H2              0.000e+00   0.000e+00   -40.618   -40.608     0.010     (0)  
Hdo           3.382e-07
   Hdo             3.382e-07   3.460e-07    -6.471    -6.461     0.010     (0)  
Hto           3.382e-07
   Hto             3.382e-07   3.460e-07    -6.471    -6.461     0.010     (0)  
I             3.401e-07
   I-              3.401e-07   2.657e-07    -6.468    -6.576    -0.107     (0)  
Na            1.000e-01
   Na+             1.000e-01   7.826e-02    -1.000    -1.106    -0.106     (0)  
Nat           3.362e-07
   Nat+            3.362e-07   2.627e-07    -6.473    -6.581    -0.107     (0)  
O(0)          1.329e-11
   O2              6.646e-12   6.801e-12   -11.177   -11.167     0.010     (0)  

------------------------------Saturation indices-------------------------------

  Phase               SI** log IAP   log K(298 K,   1 atm)

  H2(g)           -37.46    -40.61   -3.15  H2
  H2O(g)           -1.51     -0.00    1.51  H2O
  Halite           -3.81     -2.22    1.58  NaCl
  Hdo               6.54     -6.46  -13.00  Hdo
  Hto               6.54     -6.46  -13.00  Hto
  I                 5.32     -7.68  -13.00  NaI
  Nat               5.30     -7.70  -13.00  NatCl
  O2(g)            -8.28    -11.17   -2.89  O2

**For a gas, SI = log10(fugacity). Fugacity = pressure * phi / 1 atm.
  For ideal gases, phi = 1.

------------------
End of simulation.
------------------

------------------------------------
Reading input data for simulation 2.
------------------------------------

-------------------------------
End of Run after 1.815 Seconds.
-------------------------------

Time:           0
Chemistry cell: 3
Grid cell(s):   3 
------------------------------------
Reading input data for simulation 1.
------------------------------------

	RUN_CELLS
	  -start_time -21600
	  -time_step  21600
	  -cells      3
	END
--------------------------
Beginning of run as cells.
--------------------------

-----------------------------------------
Beginning of batch-reaction calculations.
-----------------------------------------

Reaction step 1.

Using solution 3.	Solution after simulation 5.
Using surface 3.	
Using pure phase assemblage 3.	Pure-phase assemblage after simulation 5.

-------------------------------Phase assemblage--------------------------------

                                                      Moles in assemblage
Phase               SI  log IAP  log K(T, P)   Initial       Final       Delta

Hdo               0.00   -13.00    -13.00    0.000e+00   1.426e-07   1.426e-07
Hto               0.00   -13.00    -13.00    0.000e+00   1.426e-07   1.426e-07
I                 0.00   -13.00    -13.00    0.000e+00   1.153e-07   1.153e-07
Nat               0.00   -13.00    -13.00    0.000e+00   1.866e-07   1.866e-07

------------------------------Surface composition------------------------------

Diffuse Double Layer Surface-Complexation Model

Su            
	  6.652e-14  Surface + diffuse layer charge, eq
	 -1.000e-01  Surface charge, eq
	 -9.649e+06  sigma, C/m˛
	 -1.031e+00  psi, V
	  4.014e+01  -F*psi/RT
	  2.706e+17  exp(-F*psi/RT)
	  1.000e-03  specific area, m˛/g
	  1.000e-03  m˛ for   1.000e+00 g

	Water in diffuse layer: 1.000e+00 kg, 100.0% of total DDL-water.

	Total moles in diffuse layer (excluding water), Donnan calculation.
	Donnan Layer potential, psi_DL = -1.236e-02 V.
	Boltzmann factor, exp(-psi_DL * F / RT) = 1.618e+00 (= c_DL / c_free if z is +1).

	Element       	     Moles
	Cl            	  6.1803e-02
	H             	  2.8171e-07
	Hdo           	  9.7724e-14
	Hto           	  9.7724e-14
	I             	  1.0109e-12
	Na            	  1.6180e-01
	Nat           	  2.7102e-12
	O             	  7.7862e-08

Su            
	  1.000e-01  moles
	                                   Mole                     Log
	Species               Moles    Fraction    Molality    Molality

	Su-               1.000e-01       1.000   1.000e-01      -1.000

-----------------------------Solution composition------------------------------

	Elements           Molality       Moles

	Cl                1.000e-01   1.000e-01
	Hdo               9.772e-14   9.772e-14
	Hto               9.772e-14   9.772e-14
	I                 1.636e-12   1.636e-12
	Na                1.000e-01   1.000e-01
	Nat               1.675e-12   1.675e-12

----------------------------Description of solution----------------------------

                                       pH  =   6.983      Charge balance
                                       pe  =  11.213      Adjusted to redox equilibrium
                        Activity of water  =   0.997
                           Ionic strength  =   1.000e-01
                       Mass of water (kg)  =   1.000e+00
                 Total alkalinity (eq/kg)  =   1.353e-13
                    Total carbon (mol/kg)  =   0.000e+00
                       Total CO2 (mol/kg)  =   0.000e+00
                         Temperature (°C)  =  25.00
                  Electrical balance (eq)  =  -1.160e-12
 Percent error, 100*(Cat-|An|)/(Cat+|An|)  =  -0.00
                               Iterations  =   1
                                  Total H  = 1.110124e+02
                                  Total O  = 5.550622e+01

----------------------------Distribution of species----------------------------

                                               Log       Log       Log    mole V
   Species          Molality    Activity  Molality  Activity     Gamma   cmł/mol

   OH-             1.260e-07   9.595e-08    -6.900    -7.018    -0.118     (0)  
   H+              1.260e-07   1.040e-07    -6.900    -6.983    -0.083      0.00
   H2O             5.551e+01   9.966e-01     1.744    -0.001     0.000     18.07
Cl            1.000e-01
   Cl-             1.000e-01   7.642e-02    -1.000    -1.117    -0.117     (0)  
H(0)          5.608e-40
   H2              2.804e-40   2.869e-40   -39.552   -39.542     0.010     (0)  
Hdo           9.772e-14
   Hdo             9.772e-14   1.000e-13   -13.010   -13.000     0.010     (0)  
Hto           9.772e-14
   Hto             9.772e-14   1.000e-13   -13.010   -13.000     0.010     (0)  
I             1.636e-12
   I-              1.636e-12   1.278e-12   -11.786   -11.894    -0.107     (0)  
Na            1.000e-01
   Na+             1.000e-01   7.826e-02    -1.000    -1.106    -0.106     (0)  
Nat           1.675e-12
   Nat+            1.675e-12   1.309e-12   -11.776   -11.883    -0.107     (0)  
O(0)          9.829e-14
   O2              4.915e-14   5.029e-14   -13.309   -13.299     0.010     (0)  

------------------------------Saturation indices-------------------------------

  Phase               SI** log IAP   log K(298 K,   1 atm)

  H2(g)           -36.39    -39.54   -3.15  H2
  H2O(g)           -1.51     -0.00    1.51  H2O
  Halite           -3.81     -2.22    1.58  NaCl
  Hdo               0.00    -13.00  -13.00  Hdo
  Hto               0.00    -13.00  -13.00  Hto
  I                 0.00    -13.00  -13.00  NaI
  Nat               0.00    -13.00  -13.00  NatCl
  O2(g)           -10.41    -13.30   -2.89  O2

**For a gas, SI = log10(fugacity). Fugacity = pressure * phi / 1 atm.
  For ideal gases, phi = 1.

------------------
End of simulation.
------------------

------------------------------------
Reading input data for simulation 2.
------------------------------------

-------------------------------
End of Run after 1.818 Seconds.
-------------------------------

Time:           0
Chemistry cell: 1
Grid cell(s):   1 
------------------------------------
Reading input data for simulation 1.
------------------------------------

	RUN_CELLS
	  -start_time -21600
	  -time_step  21600
	  -cells      1
	END
--------------------------
Beginning of run as cells.
--------------------------

-----------------------------------------
Beginning of batch-reaction calculations.
-----------------------------------------

Reaction step 1.

Using solution 1.	Solution after simulation 5.
Using surface 1.	

------------------------------Surface composition------------------------------

Diffuse Double Layer Surface-Complexation Model

Su            
	  7.413e-10  Surface + diffuse layer charge, eq
	 -1.000e-01  Surface charge, eq
	 -9.649e+06  sigma, C/m˛
	 -1.031e+00  psi, V
	  4.014e+01  -F*psi/RT
	  2.706e+17  exp(-F*psi/RT)
	  1.000e-03  specific area, m˛/g
	  1.000e-03  m˛ for   1.000e+00 g

	Water in diffuse layer: 1.000e+00 kg, 100.0% of total DDL-water.

	Total moles in diffuse layer (excluding water), Donnan calculation.
	Donnan Layer potential, psi_DL = -1.236e-02 V.
	Boltzmann factor, exp(-psi_DL * F / RT) = 1.618e+00 (= c_DL / c_free if z is +1).

	Element       	     Moles
	Cl            	  6.1804e-02
	H             	  2.8173e-07
	Hdo           	  7.5878e-07
	Hto           	  7.5878e-07
	I             	  4.7172e-07
	Na            	  1.6180e-01
	Nat           	  1.2199e-06
	O             	  7.7867e-08

Su            
	  1.000e-01  moles
	                                   Mole                     Log
	Species               Moles    Fraction    Molality    Molality

	Su-               1.000e-01       1.000   1.000e-01      -1.000

-----------------------------Solution composition------------------------------

	Elements           Molality       Moles

	Cl                1.000e-01   1.000e-01
	Hdo               7.588e-07   7.588e-07
	Hto               7.588e-07   7.588e-07
	I                 7.633e-07   7.633e-07
	Na                1.000e-01   1.000e-01
	Nat               7.539e-07   7.539e-07

----------------------------Description of solution----------------------------

                                       pH  =   6.983      Charge balance
                                       pe  =  -3.166      Adjusted to redox equilibrium
                        Activity of water  =   0.997
                           Ionic strength  =   1.000e-01
                       Mass of water (kg)  =   1.000e+00
                 Total alkalinity (eq/kg)  =   1.651e-11
                    Total carbon (mol/kg)  =   0.000e+00
                       Total CO2 (mol/kg)  =   0.000e+00
                         Temperature (°C)  =  25.00
                  Electrical balance (eq)  =   5.885e-10
 Percent error, 100*(Cat-|An|)/(Cat+|An|)  =   0.00
                               Iterations  =   0
                                  Total H  = 1.110124e+02
                                  Total O  = 5.550622e+01

----------------------------Distribution of species----------------------------

                                               Log       Log       Log    mole V
   Species          Molality    Activity  Molality  Activity     Gamma   cmł/mol

   OH-             1.260e-07   9.595e-08    -6.900    -7.018    -0.118     (0)  
   H+              1.260e-07   1.040e-07    -6.900    -6.983    -0.083      0.00
   H2O             5.551e+01   9.966e-01     1.744    -0.001     0.000     18.07
Cl            1.000e-01
   Cl-             1.000e-01   7.642e-02    -1.000    -1.117    -0.117     (0)  
H(0)          3.211e-11
   H2              1.606e-11   1.643e-11   -10.794   -10.784     0.010     (0)  
Hdo           7.588e-07
   Hdo             7.588e-07   7.765e-07    -6.120    -6.110     0.010     (0)  
Hto           7.588e-07
   Hto             7.588e-07   7.765e-07    -6.120    -6.110     0.010     (0)  
I             7.633e-07
   I-              7.633e-07   5.963e-07    -6.117    -6.225    -0.107     (0)  
Na            1.000e-01
   Na+             1.000e-01   7.826e-02    -1.000    -1.106    -0.106     (0)  
Nat           7.539e-07
   Nat+            7.539e-07   5.890e-07    -6.123    -6.230    -0.107     (0)  
O(0)          0.000e+00
   O2              0.000e+00   0.000e+00   -70.824   -70.814     0.010     (0)  

------------------------------Saturation indices-------------------------------

  Phase               SI** log IAP   log K(298 K,   1 atm)

  H2(g)            -7.63    -10.78   -3.15  H2
  H2O(g)           -1.51     -0.00    1.51  H2O
  Halite           -3.81     -2.22    1.58  NaCl
  Hdo               6.89     -6.11  -13.00  Hdo
  Hto               6.89     -6.11  -13.00  Hto
  I                 5.67     -7.33  -13.00  NaI
  Nat               5.65     -7.35  -13.00  NatCl
  O2(g)           -67.92    -70.81   -2.89  O2

**For a gas, SI = log10(fugacity). Fugacity = pressure * phi / 1 atm.
  For ideal gases, phi = 1.

------------------
End of simulation.
------------------

------------------------------------
Reading input data for simulation 2.
------------------------------------

------------------------------
End of Run after 1.87 Seconds.
------------------------------

Time:           0
Chemistry cell: 2
Grid cell(s):   2 
------------------------------------
Reading input data for simulation 1.
------------------------------------

	RUN_CELLS
	  -start_time -21600
	  -time_step  21600
	  -cells      2
	END
--------------------------
Beginning of run as cells.
--------------------------

-----------------------------------------
Beginning of batch-reaction calculations.
-----------------------------------------

Reaction step 1.

Using solution 2.	Solution after simulation 5.
Using surface 2.	

------------------------------Surface composition------------------------------

Diffuse Double Layer Surface-Complexation Model

Su            
	 -7.442e-13  Surface + diffuse layer charge, eq
	 -1.000e-01  Surface charge, eq
	 -9.649e+06  sigma, C/m˛
	 -1.031e+00  psi, V
	  4.014e+01  -F*psi/RT
	  2.706e+17  exp(-F*psi/RT)
	  1.000e-03  specific area, m˛/g
	  1.000e-03  m˛ for   1.000e+00 g

	Water in diffuse layer: 1.000e+00 kg, 100.0% of total DDL-water.

	Total moles in diffuse layer (excluding water), Donnan calculation.
	Donnan Layer potential, psi_DL = -1.236e-02 V.
	Boltzmann factor, exp(-psi_DL * F / RT) = 1.618e+00 (= c_DL / c_free if z is +1).

	Element       	     Moles
	Cl            	  6.1804e-02
	H             	  2.8172e-07
	Hdo           	  3.4600e-07
	Hto           	  3.4600e-07
	I             	  2.1612e-07
	Na            	  1.6180e-01
	Nat           	  5.5383e-07
	O             	  7.7865e-08

Su            
	  1.000e-01  moles
	                                   Mole                     Log
	Species               Moles    Fraction    Molality    Molality

	Su-               1.000e-01       1.000   1.000e-01      -1.000

-----------------------------Solution composition------------------------------

	Elements           Molality       Moles

	Cl                1.000e-01   1.000e-01
	Hdo               3.460e-07   3.460e-07
	Hto               3.460e-07   3.460e-07
	I                 3.497e-07   3.497e-07
	Na                1.000e-01   1.000e-01
	Nat               3.423e-07   3.423e-07

----------------------------Description of solution----------------------------

                                       pH  =   6.983      Charge balance
                                       pe  =  -2.991      Adjusted to redox equilibrium
                        Activity of water  =   0.997
                           Ionic strength  =   1.000e-01
                       Mass of water (kg)  =   1.000e+00
                 Total alkalinity (eq/kg)  =   9.715e-12
                    Total carbon (mol/kg)  =   0.000e+00
                       Total CO2 (mol/kg)  =   0.000e+00
                         Temperature (°C)  =  25.00
                  Electrical balance (eq)  =   1.834e-09
 Percent error, 100*(Cat-|An|)/(Cat+|An|)  =   0.00
                               Iterations  =   0
                                  Total H  = 1.110124e+02
                                  Total O  = 5.550622e+01

----------------------------Distribution of species----------------------------

                                               Log       Log       Log    mole V
[...]

Hdo               0.00   -13.00    -13.00    1.626e-05   1.637e-05   1.107e-07
Hto               0.00   -13.00    -13.00    1.626e-05   1.637e-05   1.107e-07
I                 0.00   -13.00    -13.00    1.359e-05   1.369e-05   9.728e-08
Nat               0.00   -13.00    -13.00    2.337e-05   2.356e-05   1.846e-07

------------------------------Surface composition------------------------------

Diffuse Double Layer Surface-Complexation Model

Su            
	  5.334e-12  Surface + diffuse layer charge, eq
	 -1.000e-01  Surface charge, eq
	 -9.649e+06  sigma, C/m˛
	 -1.031e+00  psi, V
	  4.014e+01  -F*psi/RT
	  2.706e+17  exp(-F*psi/RT)
	  1.000e-03  specific area, m˛/g
	  1.000e-03  m˛ for   1.000e+00 g

	Water in diffuse layer: 1.000e-01 kg, 100.0% of total DDL-water.

	Total moles in diffuse layer (excluding water), Donnan calculation.
	Donnan Layer potential, psi_DL = -5.941e-02 V.
	Boltzmann factor, exp(-psi_DL * F / RT) = 1.010e+01 (= c_DL / c_free if z is +1).

	Element       	     Moles
	Cl            	  9.9017e-04
	H             	  1.2829e-07
	Hdo           	  9.7724e-15
	Hto           	  9.7724e-15
	I             	  1.6196e-14
	Na            	  1.0099e-01
	Nat           	  1.6916e-12
	O             	  1.4126e-09

Su            
	  1.000e-01  moles
	                                   Mole                     Log
	Species               Moles    Fraction    Molality    Molality

	Su-               1.000e-01       1.000   1.000e-01      -1.000

-----------------------------Solution composition------------------------------

	Elements           Molality       Moles

	Cl                1.000e-01   1.000e-01
	Hdo               9.772e-14   9.772e-14
	Hto               9.772e-14   9.772e-14
	I                 1.636e-12   1.636e-12
	Na                1.000e-01   1.000e-01
	Nat               1.675e-12   1.675e-12

----------------------------Description of solution----------------------------

                                       pH  =   6.984      Charge balance
                                       pe  =  12.267      Adjusted to redox equilibrium
                        Activity of water  =   0.997
                           Ionic strength  =   1.000e-01
                       Mass of water (kg)  =   1.000e+00
                 Total alkalinity (eq/kg)  =   3.823e-10
                    Total carbon (mol/kg)  =   0.000e+00
                       Total CO2 (mol/kg)  =   0.000e+00
                         Temperature (°C)  =  25.00
                  Electrical balance (eq)  =   1.158e-09
 Percent error, 100*(Cat-|An|)/(Cat+|An|)  =   0.00
                               Iterations  =   1
                                  Total H  = 1.110124e+02
                                  Total O  = 5.550622e+01

----------------------------Distribution of species----------------------------

                                               Log       Log       Log    mole V
   Species          Molality    Activity  Molality  Activity     Gamma   cmł/mol

   OH-             1.262e-07   9.609e-08    -6.899    -7.017    -0.118     (0)  
   H+              1.258e-07   1.038e-07    -6.900    -6.984    -0.083      0.00
   H2O             5.551e+01   9.966e-01     1.744    -0.001     0.000     18.07
Cl            1.000e-01
   Cl-             1.000e-01   7.642e-02    -1.000    -1.117    -0.117     (0)  
H(0)          0.000e+00
   H2              0.000e+00   0.000e+00   -41.662   -41.652     0.010     (0)  
Hdo           9.772e-14
   Hdo             9.772e-14   1.000e-13   -13.010   -13.000     0.010     (0)  
Hto           9.772e-14
   Hto             9.772e-14   1.000e-13   -13.010   -13.000     0.010     (0)  
I             1.636e-12
   I-              1.636e-12   1.278e-12   -11.786   -11.894    -0.107     (0)  
Na            1.000e-01
   Na+             1.000e-01   7.826e-02    -1.000    -1.106    -0.106     (0)  
Nat           1.675e-12
   Nat+            1.675e-12   1.309e-12   -11.776   -11.883    -0.107     (0)  
O(0)          1.632e-09
   O2              8.161e-10   8.351e-10    -9.088    -9.078     0.010     (0)  

------------------------------Saturation indices-------------------------------

  Phase               SI** log IAP   log K(298 K,   1 atm)

  H2(g)           -38.50    -41.65   -3.15  H2
  H2O(g)           -1.51     -0.00    1.51  H2O
  Halite           -3.81     -2.22    1.58  NaCl
  Hdo               0.00    -13.00  -13.00  Hdo
  Hto               0.00    -13.00  -13.00  Hto
  I                 0.00    -13.00  -13.00  NaI
  Nat               0.00    -13.00  -13.00  NatCl
  O2(g)            -6.19     -9.08   -2.89  O2

**For a gas, SI = log10(fugacity). Fugacity = pressure * phi / 1 atm.
  For ideal gases, phi = 1.

------------------
End of simulation.
------------------

------------------------------------
Reading input data for simulation 2.
------------------------------------

-------------------------------
End of Run after 12.17 Seconds.
-------------------------------

Transport step  10. Multicomponent diffusion run  12.

Using mix 1.	
Using surface 1.	

Mixture 1.	

	  0.000e+00 Solution 0	Solution after simulation 1.                           
	  1.000e+00 Solution 1	Solution after simulation 7.                           
	  0.000e+00 Solution 2	Solution after simulation 7.                           

------------------------------Surface composition------------------------------

Diffuse Double Layer Surface-Complexation Model

Su            
	  4.639e-10  Surface + diffuse layer charge, eq
	 -1.000e-01  Surface charge, eq
	 -9.649e+06  sigma, C/m˛
	 -1.031e+00  psi, V
	  4.014e+01  -F*psi/RT
	  2.706e+17  exp(-F*psi/RT)
	  1.000e-03  specific area, m˛/g
	  1.000e-03  m˛ for   1.000e+00 g

	Water in diffuse layer: 7.000e-01 kg, 100.0% of total DDL-water.

	Total moles in diffuse layer (excluding water), Donnan calculation.
	Donnan Layer potential, psi_DL = -1.707e-02 V.
	Boltzmann factor, exp(-psi_DL * F / RT) = 1.943e+00 (= c_DL / c_free if z is +1).

	Element       	     Moles
	Cl            	  3.6023e-02
	H             	  2.1662e-07
	Hdo           	  5.9452e-07
	Hto           	  5.9452e-07
	I             	  3.0060e-07
	Na            	  1.3602e-01
	Nat           	  1.1139e-06
	O             	  4.5547e-08

Su            
	  1.000e-01  moles
	                                   Mole                     Log
	Species               Moles    Fraction    Molality    Molality

	Su-               1.000e-01       1.000   1.000e-01      -1.000

-----------------------------Solution composition------------------------------

	Elements           Molality       Moles

	Cl                1.000e-01   1.000e-01
	Hdo               8.493e-07   8.493e-07
	Hto               8.493e-07   8.493e-07
	I                 8.345e-07   8.345e-07
	Na                1.000e-01   1.000e-01
	Nat               8.189e-07   8.189e-07

----------------------------Description of solution----------------------------

                                       pH  =   6.983      Charge balance
                                       pe  =  12.020      Adjusted to redox equilibrium
                        Activity of water  =   0.997
                           Ionic strength  =   1.000e-01
                       Mass of water (kg)  =   1.000e+00
                 Total alkalinity (eq/kg)  =   2.603e-10
                    Total carbon (mol/kg)  =   0.000e+00
                       Total CO2 (mol/kg)  =   0.000e+00
                         Temperature (°C)  =  25.00
                  Electrical balance (eq)  =   8.584e-08
 Percent error, 100*(Cat-|An|)/(Cat+|An|)  =   0.00
                               Iterations  =   0
                                  Total H  = 1.110124e+02
                                  Total O  = 5.550622e+01

----------------------------Distribution of species----------------------------

                                               Log       Log       Log    mole V
   Species          Molality    Activity  Molality  Activity     Gamma   cmł/mol

   OH-             1.261e-07   9.605e-08    -6.899    -7.018    -0.118     (0)  
   H+              1.259e-07   1.039e-07    -6.900    -6.983    -0.083      0.00
   H2O             5.551e+01   9.966e-01     1.744    -0.001     0.000     18.07
Cl            1.000e-01
   Cl-             1.000e-01   7.642e-02    -1.000    -1.117    -0.117     (0)  
H(0)          0.000e+00
   H2              0.000e+00   0.000e+00   -41.167   -41.157     0.010     (0)  
Hdo           8.493e-07
   Hdo             8.493e-07   8.691e-07    -6.071    -6.061     0.010     (0)  
Hto           8.493e-07
   Hto             8.493e-07   8.691e-07    -6.071    -6.061     0.010     (0)  
I             8.345e-07
   I-              8.345e-07   6.519e-07    -6.079    -6.186    -0.107     (0)  
Na            1.000e-01
   Na+             1.000e-01   7.826e-02    -1.000    -1.106    -0.106     (0)  
Nat           8.189e-07
   Nat+            8.189e-07   6.398e-07    -6.087    -6.194    -0.107     (0)  
O(0)          1.666e-10
   O2              8.331e-11   8.525e-11   -10.079   -10.069     0.010     (0)  

------------------------------Saturation indices-------------------------------

  Phase               SI** log IAP   log K(298 K,   1 atm)

  H2(g)           -38.01    -41.16   -3.15  H2
  H2O(g)           -1.51     -0.00    1.51  H2O
  Halite           -3.81     -2.22    1.58  NaCl
  Hdo               6.94     -6.06  -13.00  Hdo
  Hto               6.94     -6.06  -13.00  Hto
  I                 5.71     -7.29  -13.00  NaI
  Nat               5.69     -7.31  -13.00  NatCl
  O2(g)            -7.18    -10.07   -2.89  O2

**For a gas, SI = log10(fugacity). Fugacity = pressure * phi / 1 atm.
  For ideal gases, phi = 1.

Using mix 2.	
Using surface 2.	

Mixture 2.	

	  0.000e+00 Solution 1	Solution after simulation 7.                           
	  1.000e+00 Solution 2	Solution after simulation 7.                           
	  0.000e+00 Solution 3	Solution after simulation 7.                           

------------------------------Surface composition------------------------------

Diffuse Double Layer Surface-Complexation Model

Su            
	  3.462e-10  Surface + diffuse layer charge, eq
	 -1.000e-01  Surface charge, eq
	 -9.649e+06  sigma, C/m˛
	 -1.031e+00  psi, V
	  4.014e+01  -F*psi/RT
	  2.706e+17  exp(-F*psi/RT)
	  1.000e-03  specific area, m˛/g
	  1.000e-03  m˛ for   1.000e+00 g

	Water in diffuse layer: 1.000e-01 kg, 100.0% of total DDL-water.

	Total moles in diffuse layer (excluding water), Donnan calculation.
	Donnan Layer potential, psi_DL = -5.941e-02 V.
	Boltzmann factor, exp(-psi_DL * F / RT) = 1.010e+01 (= c_DL / c_free if z is +1).

	Element       	     Moles
	Cl            	  9.9018e-04
	H             	  1.2830e-07
	Hdo           	  4.6575e-08
	Hto           	  4.6575e-08
	I             	  4.4157e-09
	Na            	  1.0099e-01
	Nat           	  4.2946e-07
	O             	  1.3253e-09

Su            
	  1.000e-01  moles
	                                   Mole                     Log
	Species               Moles    Fraction    Molality    Molality

	Su-               1.000e-01       1.000   1.000e-01      -1.000

-----------------------------Solution composition------------------------------

	Elements           Molality       Moles

	Cl                1.000e-01   1.000e-01
	Hdo               4.658e-07   4.658e-07
	Hto               4.658e-07   4.658e-07
	I                 4.459e-07   4.459e-07
	Na                1.000e-01   1.000e-01
	Nat               4.252e-07   4.252e-07

----------------------------Description of solution----------------------------

                                       pH  =   6.984      Charge balance
                                       pe  =  12.185      Adjusted to redox equilibrium
                        Activity of water  =   0.997
                           Ionic strength  =   1.000e-01
                       Mass of water (kg)  =   1.000e+00
                 Total alkalinity (eq/kg)  =   3.478e-10
                    Total carbon (mol/kg)  =   0.000e+00
                       Total CO2 (mol/kg)  =   0.000e+00
                         Temperature (°C)  =  25.00
                  Electrical balance (eq)  =   5.961e-08
 Percent error, 100*(Cat-|An|)/(Cat+|An|)  =   0.00
                               Iterations  =   0
                                  Total H  = 1.110124e+02
                                  Total O  = 5.550622e+01

----------------------------Distribution of species----------------------------

                                               Log       Log       Log    mole V
   Species          Molality    Activity  Molality  Activity     Gamma   cmł/mol

   OH-             1.262e-07   9.608e-08    -6.899    -7.017    -0.118     (0)  
   H+              1.258e-07   1.038e-07    -6.900    -6.984    -0.083      0.00
   H2O             5.551e+01   9.966e-01     1.744    -0.001     0.000     18.07
Cl            1.000e-01
   Cl-             1.000e-01   7.642e-02    -1.000    -1.117    -0.117     (0)  
H(0)          0.000e+00
   H2              0.000e+00   0.000e+00   -41.497   -41.487     0.010     (0)  
Hdo           4.658e-07
   Hdo             4.658e-07   4.766e-07    -6.332    -6.322     0.010     (0)  
Hto           4.658e-07
   Hto             4.658e-07   4.766e-07    -6.332    -6.322     0.010     (0)  
I             4.459e-07
   I-              4.459e-07   3.484e-07    -6.351    -6.458    -0.107     (0)  
Na            1.000e-01
   Na+             1.000e-01   7.826e-02    -1.000    -1.106    -0.106     (0)  
Nat           4.252e-07
   Nat+            4.252e-07   3.322e-07    -6.371    -6.479    -0.107     (0)  
O(0)          7.605e-10
   O2              3.802e-10   3.891e-10    -9.420    -9.410     0.010     (0)  

------------------------------Saturation indices-------------------------------

  Phase               SI** log IAP   log K(298 K,   1 atm)

  H2(g)           -38.34    -41.49   -3.15  H2
  H2O(g)           -1.51     -0.00    1.51  H2O
  Halite           -3.81     -2.22    1.58  NaCl
  Hdo               6.68     -6.32  -13.00  Hdo
  Hto               6.68     -6.32  -13.00  Hto
  I                 5.44     -7.56  -13.00  NaI
  Nat               5.40     -7.60  -13.00  NatCl
  O2(g)            -6.52     -9.41   -2.89  O2

**For a gas, SI = log10(fugacity). Fugacity = pressure * phi / 1 atm.
  For ideal gases, phi = 1.

Using mix 3.	
Using surface 3.	
Using pure phase assemblage 3.	Pure-phase assemblage after simulation 7.

Mixture 3.	

	  0.000e+00 Solution 2	Solution after simulation 7.                           
	  1.000e+00 Solution 3	Solution after simulation 7.                           
	  0.000e+00 Solution 4	Solution after simulation 3.                           

-------------------------------Phase assemblage--------------------------------

                                                      Moles in assemblage
Phase               SI  log IAP  log K(T, P)   Initial       Final       Delta

Hdo               0.00   -13.00    -13.00    1.626e-05   1.692e-05   6.640e-07
Hto               0.00   -13.00    -13.00    1.626e-05   1.692e-05   6.640e-07
I                 0.00   -13.00    -13.00    1.359e-05   1.417e-05   5.837e-07
Nat               0.00   -13.00    -13.00    2.337e-05   2.448e-05   1.108e-06

------------------------------Surface composition------------------------------

Diffuse Double Layer Surface-Complexation Model

Su            
	  5.334e-12  Surface + diffuse layer charge, eq
	 -1.000e-01  Surface charge, eq
	 -9.649e+06  sigma, C/m˛
	 -1.031e+00  psi, V
	  4.014e+01  -F*psi/RT
	  2.706e+17  exp(-F*psi/RT)
	  1.000e-03  specific area, m˛/g
	  1.000e-03  m˛ for   1.000e+00 g

	Water in diffuse layer: 1.000e-01 kg, 100.0% of total DDL-water.

	Total moles in diffuse layer (excluding water), Donnan calculation.
	Donnan Layer potential, psi_DL = -5.941e-02 V.
	Boltzmann factor, exp(-psi_DL * F / RT) = 1.010e+01 (= c_DL / c_free if z is +1).

	Element       	     Moles
	Cl            	  9.9017e-04
	H             	  1.2829e-07
	Hdo           	  9.7724e-15
	Hto           	  9.7724e-15
	I             	  1.6196e-14
	Na            	  1.0099e-01
	Nat           	  1.6916e-12
	O             	  1.3568e-09

Su            
	  1.000e-01  moles
	                                   Mole                     Log
	Species               Moles    Fraction    Molality    Molality

	Su-               1.000e-01       1.000   1.000e-01      -1.000

-----------------------------Solution composition------------------------------

	Elements           Molality       Moles

	Cl                1.000e-01   1.000e-01
	Hdo               9.772e-14   9.772e-14
	Hto               9.772e-14   9.772e-14
	I                 1.636e-12   1.636e-12
	Na                1.000e-01   1.000e-01
	Nat               1.675e-12   1.675e-12

----------------------------Description of solution----------------------------

                                       pH  =   6.984      Charge balance
                                       pe  =  12.222      Adjusted to redox equilibrium
                        Activity of water  =   0.997
                           Ionic strength  =   1.000e-01
                       Mass of water (kg)  =   1.000e+00
                 Total alkalinity (eq/kg)  =   3.869e-10
                    Total carbon (mol/kg)  =   0.000e+00
                       Total CO2 (mol/kg)  =   0.000e+00
                         Temperature (°C)  =  25.00
                  Electrical balance (eq)  =   1.195e-09
 Percent error, 100*(Cat-|An|)/(Cat+|An|)  =   0.00
                               Iterations  =   1
                                  Total H  = 1.110124e+02
                                  Total O  = 5.550622e+01

----------------------------Distribution of species----------------------------

                                               Log       Log       Log    mole V
   Species          Molality    Activity  Molality  Activity     Gamma   cmł/mol

   OH-             1.262e-07   9.609e-08    -6.899    -7.017    -0.118     (0)  
   H+              1.258e-07   1.038e-07    -6.900    -6.984    -0.083      0.00
   H2O             5.551e+01   9.966e-01     1.744    -0.001     0.000     18.07
Cl            1.000e-01
   Cl-             1.000e-01   7.642e-02    -1.000    -1.117    -0.117     (0)  
H(0)          0.000e+00
   H2              0.000e+00   0.000e+00   -41.572   -41.562     0.010     (0)  
Hdo           9.772e-14
   Hdo             9.772e-14   1.000e-13   -13.010   -13.000     0.010     (0)  
Hto           9.772e-14
   Hto             9.772e-14   1.000e-13   -13.010   -13.000     0.010     (0)  
I             1.636e-12
   I-              1.636e-12   1.278e-12   -11.786   -11.894    -0.107     (0)  
Na            1.000e-01
   Na+             1.000e-01   7.826e-02    -1.000    -1.106    -0.106     (0)  
Nat           1.675e-12
   Nat+            1.675e-12   1.309e-12   -11.776   -11.883    -0.107     (0)  
O(0)          1.074e-09
   O2              5.372e-10   5.497e-10    -9.270    -9.260     0.010     (0)  

------------------------------Saturation indices-------------------------------

  Phase               SI** log IAP   log K(298 K,   1 atm)

  H2(g)           -38.41    -41.56   -3.15  H2
  H2O(g)           -1.51     -0.00    1.51  H2O
  Halite           -3.81     -2.22    1.58  NaCl
  Hdo               0.00    -13.00  -13.00  Hdo
  Hto               0.00    -13.00  -13.00  Hto
  I                 0.00    -13.00  -13.00  NaI
  Nat               0.00    -13.00  -13.00  NatCl
  O2(g)            -6.37     -9.26   -2.89  O2

**For a gas, SI = log10(fugacity). Fugacity = pressure * phi / 1 atm.
  For ideal gases, phi = 1.

------------------
End of simulation.
------------------

------------------------------------
Reading input data for simulation 8.
------------------------------------

--------------------------------
End of Run after 12.371 Seconds.
--------------------------------

