WARNING: Database file from DATABASE keyword is used; command line argument ignored.
   Input file: harm_mean
  Output file: harm_mean.out
Database file: ../database/wateq4f.dat

------------------
Reading data base.
------------------

	SOLUTION_MASTER_SPECIES
	SOLUTION_SPECIES
	PHASES
	EXCHANGE_MASTER_SPECIES
	EXCHANGE_SPECIES
	SURFACE_MASTER_SPECIES
	SURFACE_SPECIES
	RATES
	END
------------------------------------
Reading input data for simulation 1.
------------------------------------

	DATABASE ../database/wateq4f.dat
	SELECTED_OUTPUT 101
	    file                 harm_mean_101.sel
	USER_PUNCH 101
	    headings Mu SC
	    start
	10 PUNCH STR_F$(MU, 20, 12)
	20 PUNCH STR_F$(SC, 20, 10)
	    end
	SOLUTION_MASTER_SPECIES # define the tracers...
	Hto Hto 0 Hto 20
	Hdo Hdo 0 Hdo 21
	Nat Nat+ 0 Nat 22
	I I- 0 I 126.9
	Cl_tr Cl_tr- 0 Cl_tr 36.45
	Cs     Cs+     0 Cs 132.9
	SOLUTION_SPECIES
	Hto = Hto
	Hdo = Hdo
	Nat+ = Nat+
	I- = I-
	Cl_tr- = Cl_tr-
	PHASES
	Hto
		Hto = Hto
		log_k  -13.
	Hdo
		Hdo = Hdo
		log_k  -13.
	I
		NaI = I- + Na+
		log_k  -13.
	Nat
		NatCl = Nat+ + Cl-
		log_k  -13.
	END
------------------
End of simulation.
------------------

------------------------------------
Reading input data for simulation 2.
------------------------------------

	SOLUTION 0
	pH 7.09 charge
	  Na 100
	  Cl 100
	 Hto 1e-3
	    Hdo 1e-3
	    Nat 1e-3
	    I 1e-3
	 water 1
	SOLUTION 1
	pH 7.09 charge
	  Na 100
	  Cl 100
	 Hto 0.66e-3
	 Hdo 0.66e-3
	 Nat 0.66e-3
	 I 0.66e-3
	 water 1
	SOLUTION 2
	pH 7.09 charge
	  Na 100
	  Cl 100
	 Hto 0.33e-3
	 Hdo 0.33e-3
	 Nat 0.33e-3
	 I 0.33e-3
	 water 1
	END
-------------------------------------------
Beginning of initial solution calculations.
-------------------------------------------

Initial solution 0.	

-----------------------------Solution composition------------------------------

	Elements           Molality       Moles

	Cl                1.000e-01   1.000e-01
	Hdo               1.000e-06   1.000e-06
	Hto               1.000e-06   1.000e-06
	I                 1.000e-06   1.000e-06
	Na                1.000e-01   1.000e-01
	Nat               1.000e-06   1.000e-06

----------------------------Description of solution----------------------------

                                       pH  =   6.983      Charge balance
                                       pe  =   4.000    
                        Activity of water  =   0.997
                           Ionic strength  =   1.000e-01
                       Mass of water (kg)  =   1.000e+00
                 Total alkalinity (eq/kg)  =   7.070e-18
                    Total carbon (mol/kg)  =   0.000e+00
                       Total CO2 (mol/kg)  =   0.000e+00
                         Temperature (°C)  =  25.00
                  Electrical balance (eq)  =  -5.893e-14
 Percent error, 100*(Cat-|An|)/(Cat+|An|)  =  -0.00
                               Iterations  =   4
                                  Total H  = 1.110124e+02
                                  Total O  = 5.550622e+01

----------------------------Distribution of species----------------------------

                                               Log       Log       Log    mole V
   Species          Molality    Activity  Molality  Activity     Gamma   cm³/mol

   OH-             1.260e-07   9.595e-08    -6.900    -7.018    -0.118     (0)  
   H+              1.260e-07   1.040e-07    -6.900    -6.983    -0.083      0.00
   H2O             5.551e+01   9.966e-01     1.744    -0.001     0.000     18.07
Cl            1.000e-01
   Cl-             1.000e-01   7.642e-02    -1.000    -1.117    -0.117     (0)  
H(0)          1.496e-25
   H2              7.480e-26   7.654e-26   -25.126   -25.116     0.010     (0)  
Hdo           1.000e-06
   Hdo             1.000e-06   1.023e-06    -6.000    -5.990     0.010     (0)  
Hto           1.000e-06
   Hto             1.000e-06   1.023e-06    -6.000    -5.990     0.010     (0)  
I             1.000e-06
   I-              1.000e-06   7.812e-07    -6.000    -6.107    -0.107     (0)  
Na            1.000e-01
   Na+             1.000e-01   7.826e-02    -1.000    -1.106    -0.106     (0)  
Nat           1.000e-06
   Nat+            1.000e-06   7.812e-07    -6.000    -6.107    -0.107     (0)  
O(0)          0.000e+00
   O2              0.000e+00   0.000e+00   -42.161   -42.151     0.010     (0)  

------------------------------Saturation indices-------------------------------

  Phase               SI** log IAP   log K(298 K,   1 atm)

  H2(g)           -21.97    -25.12   -3.15  H2
  H2O(g)           -1.51     -0.00    1.51  H2O
  Halite           -3.81     -2.22    1.58  NaCl
  Hdo               7.01     -5.99  -13.00  Hdo
  Hto               7.01     -5.99  -13.00  Hto
  I                 5.79     -7.21  -13.00  NaI
  Nat               5.78     -7.22  -13.00  NatCl
  O2(g)           -39.26    -42.15   -2.89  O2

**For a gas, SI = log10(fugacity). Fugacity = pressure * phi / 1 atm.
  For ideal gases, phi = 1.

Initial solution 1.	

-----------------------------Solution composition------------------------------

	Elements           Molality       Moles

	Cl                1.000e-01   1.000e-01
	Hdo               6.600e-07   6.600e-07
	Hto               6.600e-07   6.600e-07
	I                 6.600e-07   6.600e-07
	Na                1.000e-01   1.000e-01
	Nat               6.600e-07   6.600e-07

----------------------------Description of solution----------------------------

                                       pH  =   6.983      Charge balance
                                       pe  =   4.000    
                        Activity of water  =   0.997
                           Ionic strength  =   1.000e-01
                       Mass of water (kg)  =   1.000e+00
                 Total alkalinity (eq/kg)  =  -2.450e-18
                    Total carbon (mol/kg)  =   0.000e+00
                       Total CO2 (mol/kg)  =   0.000e+00
                         Temperature (°C)  =  25.00
                  Electrical balance (eq)  =  -5.892e-14
 Percent error, 100*(Cat-|An|)/(Cat+|An|)  =  -0.00
                               Iterations  =   4
                                  Total H  = 1.110124e+02
                                  Total O  = 5.550622e+01

----------------------------Distribution of species----------------------------

                                               Log       Log       Log    mole V
   Species          Molality    Activity  Molality  Activity     Gamma   cm³/mol

   H+              1.260e-07   1.040e-07    -6.900    -6.983    -0.083      0.00
   OH-             1.260e-07   9.595e-08    -6.900    -7.018    -0.118     (0)  
   H2O             5.551e+01   9.966e-01     1.744    -0.001     0.000     18.07
Cl            1.000e-01
   Cl-             1.000e-01   7.642e-02    -1.000    -1.117    -0.117     (0)  
H(0)          1.496e-25
   H2              7.480e-26   7.654e-26   -25.126   -25.116     0.010     (0)  
Hdo           6.600e-07
   Hdo             6.600e-07   6.754e-07    -6.180    -6.170     0.010     (0)  
Hto           6.600e-07
   Hto             6.600e-07   6.754e-07    -6.180    -6.170     0.010     (0)  
I             6.600e-07
   I-              6.600e-07   5.156e-07    -6.180    -6.288    -0.107     (0)  
Na            1.000e-01
   Na+             1.000e-01   7.826e-02    -1.000    -1.106    -0.106     (0)  
Nat           6.600e-07
   Nat+            6.600e-07   5.156e-07    -6.180    -6.288    -0.107     (0)  
O(0)          0.000e+00
   O2              0.000e+00   0.000e+00   -42.161   -42.151     0.010     (0)  

------------------------------Saturation indices-------------------------------

  Phase               SI** log IAP   log K(298 K,   1 atm)

  H2(g)           -21.97    -25.12   -3.15  H2
  H2O(g)           -1.51     -0.00    1.51  H2O
  Halite           -3.81     -2.22    1.58  NaCl
  Hdo               6.83     -6.17  -13.00  Hdo
  Hto               6.83     -6.17  -13.00  Hto
  I                 5.61     -7.39  -13.00  NaI
  Nat               5.60     -7.40  -13.00  NatCl
  O2(g)           -39.26    -42.15   -2.89  O2

**For a gas, SI = log10(fugacity). Fugacity = pressure * phi / 1 atm.
  For ideal gases, phi = 1.

Initial solution 2.	

-----------------------------Solution composition------------------------------

	Elements           Molality       Moles

	Cl                1.000e-01   1.000e-01
	Hdo               3.300e-07   3.300e-07
	Hto               3.300e-07   3.300e-07
	I                 3.300e-07   3.300e-07
	Na                1.000e-01   1.000e-01
	Nat               3.300e-07   3.300e-07

----------------------------Description of solution----------------------------

                                       pH  =   6.983      Charge balance
                                       pe  =   4.000    
                        Activity of water  =   0.997
                           Ionic strength  =   1.000e-01
                       Mass of water (kg)  =   1.000e+00
                 Total alkalinity (eq/kg)  =  -5.585e-18
                    Total carbon (mol/kg)  =   0.000e+00
                       Total CO2 (mol/kg)  =   0.000e+00
                         Temperature (°C)  =  25.00
                  Electrical balance (eq)  =  -5.893e-14
 Percent error, 100*(Cat-|An|)/(Cat+|An|)  =  -0.00
                               Iterations  =   4
                                  Total H  = 1.110124e+02
                                  Total O  = 5.550622e+01

----------------------------Distribution of species----------------------------

                                               Log       Log       Log    mole V
   Species          Molality    Activity  Molality  Activity     Gamma   cm³/mol

   H+              1.260e-07   1.040e-07    -6.900    -6.983    -0.083      0.00
   OH-             1.260e-07   9.595e-08    -6.900    -7.018    -0.118     (0)  
   H2O             5.551e+01   9.966e-01     1.744    -0.001     0.000     18.07
Cl            1.000e-01
   Cl-             1.000e-01   7.642e-02    -1.000    -1.117    -0.117     (0)  
H(0)          1.496e-25
   H2              7.480e-26   7.654e-26   -25.126   -25.116     0.010     (0)  
Hdo           3.300e-07
   Hdo             3.300e-07   3.377e-07    -6.481    -6.471     0.010     (0)  
Hto           3.300e-07
   Hto             3.300e-07   3.377e-07    -6.481    -6.471     0.010     (0)  
I             3.300e-07
   I-              3.300e-07   2.578e-07    -6.481    -6.589    -0.107     (0)  
Na            1.000e-01
   Na+             1.000e-01   7.826e-02    -1.000    -1.106    -0.106     (0)  
Nat           3.300e-07
   Nat+            3.300e-07   2.578e-07    -6.481    -6.589    -0.107     (0)  
O(0)          0.000e+00
   O2              0.000e+00   0.000e+00   -42.161   -42.151     0.010     (0)  

------------------------------Saturation indices-------------------------------

  Phase               SI** log IAP   log K(298 K,   1 atm)

  H2(g)           -21.97    -25.12   -3.15  H2
  H2O(g)           -1.51     -0.00    1.51  H2O
  Halite           -3.81     -2.22    1.58  NaCl
  Hdo               6.53     -6.47  -13.00  Hdo
  Hto               6.53     -6.47  -13.00  Hto
  I                 5.30     -7.70  -13.00  NaI
  Nat               5.29     -7.71  -13.00  NatCl
  O2(g)           -39.26    -42.15   -2.89  O2

**For a gas, SI = log10(fugacity). Fugacity = pressure * phi / 1 atm.
  For ideal gases, phi = 1.

------------------
End of simulation.
------------------

------------------------------------
Reading input data for simulation 3.
------------------------------------

	SOLUTION 3 # Outer solution where the tracers precipitate...
	pH 7.09 charge
	  Na 100
	  Cl 100
	 Hto 0.33e-10
	 Hdo 0.33e-10
	 Nat 0.33e-10
	 I 0.33e-10
	EQUILIBRIUM_PHASES 3
	Hto 0 0
	 Hdo 0 0
	 I 0 0
	 Nat 0 0
	SAVE solution 3
	END
-------------------------------------------
Beginning of initial solution calculations.
-------------------------------------------

Initial solution 3.	

-----------------------------Solution composition------------------------------

	Elements           Molality       Moles

	Cl                1.000e-01   1.000e-01
	Hdo               3.300e-14   3.300e-14
	Hto               3.300e-14   3.300e-14
	I                 3.300e-14   3.300e-14
	Na                1.000e-01   1.000e-01
	Nat               3.300e-14   3.300e-14

----------------------------Description of solution----------------------------

                                       pH  =   6.983      Charge balance
                                       pe  =   4.000    
                        Activity of water  =   0.997
                           Ionic strength  =   1.000e-01
                       Mass of water (kg)  =   1.000e+00
                 Total alkalinity (eq/kg)  =   5.814e-18
                    Total carbon (mol/kg)  =   0.000e+00
                       Total CO2 (mol/kg)  =   0.000e+00
                         Temperature (°C)  =  25.00
                  Electrical balance (eq)  =  -5.890e-14
 Percent error, 100*(Cat-|An|)/(Cat+|An|)  =  -0.00
                               Iterations  =   4
                                  Total H  = 1.110124e+02
                                  Total O  = 5.550622e+01

----------------------------Distribution of species----------------------------

                                               Log       Log       Log    mole V
   Species          Molality    Activity  Molality  Activity     Gamma   cm³/mol

   OH-             1.260e-07   9.595e-08    -6.900    -7.018    -0.118     (0)  
   H+              1.260e-07   1.040e-07    -6.900    -6.983    -0.083      0.00
   H2O             5.551e+01   9.966e-01     1.744    -0.001     0.000     18.07
Cl            1.000e-01
   Cl-             1.000e-01   7.642e-02    -1.000    -1.117    -0.117     (0)  
H(0)          1.496e-25
   H2              7.480e-26   7.654e-26   -25.126   -25.116     0.010     (0)  
Hdo           3.300e-14
   Hdo             3.300e-14   3.377e-14   -13.481   -13.471     0.010     (0)  
Hto           3.300e-14
   Hto             3.300e-14   3.377e-14   -13.481   -13.471     0.010     (0)  
I             3.300e-14
   I-              3.300e-14   2.578e-14   -13.481   -13.589    -0.107     (0)  
Na            1.000e-01
   Na+             1.000e-01   7.826e-02    -1.000    -1.106    -0.106     (0)  
Nat           3.300e-14
   Nat+            3.300e-14   2.578e-14   -13.481   -13.589    -0.107     (0)  
O(0)          0.000e+00
   O2              0.000e+00   0.000e+00   -42.161   -42.151     0.010     (0)  

------------------------------Saturation indices-------------------------------

  Phase               SI** log IAP   log K(298 K,   1 atm)

  H2(g)           -21.97    -25.12   -3.15  H2
  H2O(g)           -1.51     -0.00    1.51  H2O
  Halite           -3.81     -2.22    1.58  NaCl
  Hdo              -0.47    -13.47  -13.00  Hdo
  Hto              -0.47    -13.47  -13.00  Hto
  I                -1.70    -14.70  -13.00  NaI
  Nat              -1.71    -14.71  -13.00  NatCl
  O2(g)           -39.26    -42.15   -2.89  O2

**For a gas, SI = log10(fugacity). Fugacity = pressure * phi / 1 atm.
  For ideal gases, phi = 1.

-----------------------------------------
Beginning of batch-reaction calculations.
-----------------------------------------

Reaction step 1.

Using solution 3.	
Using pure phase assemblage 3.	

-------------------------------Phase assemblage--------------------------------

                                                      Moles in assemblage
Phase               SI  log IAP  log K(T, P)   Initial       Final       Delta

Hdo              -0.47   -13.47    -13.00    0.000e+00           0   0.000e+00
Hto              -0.47   -13.47    -13.00    0.000e+00           0   0.000e+00
I                -1.70   -14.70    -13.00    0.000e+00           0   0.000e+00
Nat              -1.71   -14.71    -13.00    0.000e+00           0   0.000e+00

-----------------------------Solution composition------------------------------

	Elements           Molality       Moles

	Cl                1.000e-01   1.000e-01
	Hdo               3.300e-14   3.300e-14
	Hto               3.300e-14   3.300e-14
	I                 3.300e-14   3.300e-14
	Na                1.000e-01   1.000e-01
	Nat               3.300e-14   3.300e-14

----------------------------Description of solution----------------------------

                                       pH  =   6.983      Charge balance
                                       pe  =   3.000      Adjusted to redox equilibrium
                        Activity of water  =   0.997
                           Ionic strength  =   1.000e-01
                       Mass of water (kg)  =   1.000e+00
                 Total alkalinity (eq/kg)  =   5.873e-18
                    Total carbon (mol/kg)  =   0.000e+00
                       Total CO2 (mol/kg)  =   0.000e+00
                         Temperature (°C)  =  25.00
                  Electrical balance (eq)  =  -6.720e-14
 Percent error, 100*(Cat-|An|)/(Cat+|An|)  =  -0.00
                               Iterations  =   1
                                  Total H  = 1.110124e+02
                                  Total O  = 5.550622e+01

----------------------------Distribution of species----------------------------

                                               Log       Log       Log    mole V
   Species          Molality    Activity  Molality  Activity     Gamma   cm³/mol

   OH-             1.260e-07   9.595e-08    -6.900    -7.018    -0.118     (0)  
   H+              1.260e-07   1.040e-07    -6.900    -6.983    -0.083      0.00
   H2O             5.551e+01   9.966e-01     1.744    -0.001     0.000     18.07
Cl            1.000e-01
   Cl-             1.000e-01   7.642e-02    -1.000    -1.117    -0.117     (0)  
H(0)          1.496e-23
   H2              7.480e-24   7.654e-24   -23.126   -23.116     0.010     (0)  
Hdo           3.300e-14
   Hdo             3.300e-14   3.377e-14   -13.481   -13.471     0.010     (0)  
Hto           3.300e-14
   Hto             3.300e-14   3.377e-14   -13.481   -13.471     0.010     (0)  
I             3.300e-14
   I-              3.300e-14   2.578e-14   -13.481   -13.589    -0.107     (0)  
Na            1.000e-01
   Na+             1.000e-01   7.826e-02    -1.000    -1.106    -0.106     (0)  
Nat           3.300e-14
   Nat+            3.300e-14   2.578e-14   -13.481   -13.589    -0.107     (0)  
O(0)          0.000e+00
   O2              0.000e+00   0.000e+00   -46.161   -46.151     0.010     (0)  

------------------------------Saturation indices-------------------------------

  Phase               SI** log IAP   log K(298 K,   1 atm)

  H2(g)           -19.97    -23.12   -3.15  H2
  H2O(g)           -1.51     -0.00    1.51  H2O
  Halite           -3.81     -2.22    1.58  NaCl
  Hdo              -0.47    -13.47  -13.00  Hdo
  Hto              -0.47    -13.47  -13.00  Hto
  I                -1.70    -14.70  -13.00  NaI
  Nat              -1.71    -14.71  -13.00  NatCl
  O2(g)           -43.26    -46.15   -2.89  O2

**For a gas, SI = log10(fugacity). Fugacity = pressure * phi / 1 atm.
  For ideal gases, phi = 1.

------------------
End of simulation.
------------------

------------------------------------
Reading input data for simulation 4.
------------------------------------

	SURFACE_MASTER_SPECIES
	 Su Su-
	SURFACE_SPECIES
	        Su- = Su-
	SURFACE 1
	   equilibrate 1
	  Su  0.1  1e-3  1
	 donnan  1e-0
	SURFACE 2
	   equilibrate 2
	  Su  0.1  1e-3  1
	 donnan  1e-0
	SURFACE 3
	   equilibrate 3
	  Su  0.1  1e-3  1
	 donnan  1e-0
	END
------------------------------------------------------
Beginning of initial surface-composition calculations.
------------------------------------------------------

Surface 1.	

Diffuse Double Layer Surface-Complexation Model

Su            
	 -6.597e-13  Surface + diffuse layer charge, eq
	 -1.000e-01  Surface charge, eq
	 -9.649e+06  sigma, C/m²
	 -1.031e+00  psi, V
	  4.014e+01  -F*psi/RT
	  2.706e+17  exp(-F*psi/RT)
	  1.000e-03  specific area, m²/g
	  1.000e-03  m² for   1.000e+00 g

	Water in diffuse layer: 1.000e+00 kg, 100.0% of total DDL-water.

	Total moles in diffuse layer (excluding water), Donnan calculation.
	Donnan Layer potential, psi_DL = -1.236e-02 V.
	Boltzmann factor, exp(-psi_DL * F / RT) = 1.618e+00 (= c_DL / c_free if z is +1).

	Element       	     Moles
	Cl            	  6.1804e-02
	H             	  2.8171e-07
	Hdo           	  6.6000e-07
	Hto           	  6.6000e-07
	I             	  4.0790e-07
	Na            	  1.6180e-01
	Nat           	  1.0679e-06
	O             	  7.7862e-08

Su            
	  1.000e-01  moles
	                                   Mole                     Log
	Species               Moles    Fraction    Molality    Molality

	Su-               1.000e-01       1.000   1.000e-01      -1.000

Surface 2.	

Diffuse Double Layer Surface-Complexation Model

Su            
	 -6.602e-13  Surface + diffuse layer charge, eq
	 -1.000e-01  Surface charge, eq
	 -9.649e+06  sigma, C/m²
	 -1.031e+00  psi, V
	  4.014e+01  -F*psi/RT
	  2.706e+17  exp(-F*psi/RT)
	  1.000e-03  specific area, m²/g
	  1.000e-03  m² for   1.000e+00 g

	Water in diffuse layer: 1.000e+00 kg, 100.0% of total DDL-water.

	Total moles in diffuse layer (excluding water), Donnan calculation.
	Donnan Layer potential, psi_DL = -1.236e-02 V.
	Boltzmann factor, exp(-psi_DL * F / RT) = 1.618e+00 (= c_DL / c_free if z is +1).

	Element       	     Moles
	Cl            	  6.1804e-02
	H             	  2.8171e-07
	Hdo           	  3.3000e-07
	Hto           	  3.3000e-07
	I             	  2.0395e-07
	Na            	  1.6180e-01
	Nat           	  5.3395e-07
	O             	  7.7862e-08

Su            
	  1.000e-01  moles
	                                   Mole                     Log
	Species               Moles    Fraction    Molality    Molality

	Su-               1.000e-01       1.000   1.000e-01      -1.000

Surface 3.	

Diffuse Double Layer Surface-Complexation Model

Su            
	 -6.601e-13  Surface + diffuse layer charge, eq
	 -1.000e-01  Surface charge, eq
	 -9.649e+06  sigma, C/m²
	 -1.031e+00  psi, V
	  4.014e+01  -F*psi/RT
	  2.706e+17  exp(-F*psi/RT)
	  1.000e-03  specific area, m²/g
	  1.000e-03  m² for   1.000e+00 g

	Water in diffuse layer: 1.000e+00 kg, 100.0% of total DDL-water.

	Total moles in diffuse layer (excluding water), Donnan calculation.
	Donnan Layer potential, psi_DL = -1.236e-02 V.
	Boltzmann factor, exp(-psi_DL * F / RT) = 1.618e+00 (= c_DL / c_free if z is +1).

	Element       	     Moles
	Cl            	  6.1803e-02
	H             	  2.8171e-07
	Hdo           	  3.3000e-14
	Hto           	  3.3000e-14
	I             	  2.0395e-14
	Na            	  1.6180e-01
	Nat           	  5.3395e-14
	O             	  7.7862e-08

Su            
	  1.000e-01  moles
	                                   Mole                     Log
	Species               Moles    Fraction    Molality    Molality

	Su-               1.000e-01       1.000   1.000e-01      -1.000

------------------
End of simulation.
------------------

------------------------------------
Reading input data for simulation 5.
------------------------------------

	TRANSPORT
	 cells 3
	 lengths 1e-2 1e-2
	 bcond 1 2
	 shifts 10 0
	 punch_cells 3
	 timest 3 day 1
	 multi_d true 1e-9 1 0.0 1.0
	USER_GRAPH 1 harmonic mean solution for MCD through free water and EDL
WARNING: Cell-lengths were read for 2 cells. Last value is used till cell 3.
WARNING: No dispersivities were read; disp = 0 assumed.
	 -axis_t "Time / days" "mass transfer relative to HTO/ (mol/mol)"
	 -head 22Na+ HDO I- PHREEQC    
	 -plot_c time
	 -start
	10  Na = 0.1 : Su = 0.1 : dl_aq_i = 1 : t = Su / dl_aq_i : Bm = (t + (t^2 + 4 * Na^2)^0.5) / (2 * Na) # : if step_no = 1 then print Bm
	20  # i_cell...
	30  h_i = 1e-2 : aq_i = 1 : aqt_i = aq_i + dl_aq_i : f_free_i = aq_i / aqt_i
	40  A_i = aqt_i / h_i : G_i = 1 : Dw = 1e-9 : b_i = A_i / (G_i * h_i / 2) 
	50  b_i_cat = b_i * (f_free_i + (1 - f_free_i) * Bm) : b_i_ani = b_i * (f_free_i + (1 - f_free_i) / Bm)
	60  # j_cell...
	62  Na = 0.1 : Su = 0.1 : dl_aq_j = 1 : t = Su / dl_aq_j : Bm = (t + (t^2 + 4 * Na^2)^0.5) / (2 * Na) # : if step_no = 1 then print Bm
	70  h_j = 1e-2 : aq_j = 1 : aqt_j = aq_j + dl_aq_j : f_free_j = aq_j / aqt_j
	80  A_j = aqt_j / h_j : G_j = 1 : Dw = 1e-9 : b_j = A_j / (G_j * h_j / 2) 
	90  b_j_cat = b_j * (f_free_j + (1 - f_free_j) * Bm) : b_j_ani = b_j * (f_free_j + (1 - f_free_j) / Bm)
	100 # b_ij...
	110 b_ij_HTO = b_i * b_j / (b_i + b_j)
	120 b_ij_Na = b_i_cat * b_j_cat / (b_i_cat + b_j_cat) : b_ij_I = b_i_ani * b_j_ani / (b_i_ani + b_j_ani)
	130 # graph...
	140 t = total_time / (3600 * 24)
	150 plot_xy t, b_ij_Na / b_ij_HTO, symbol = None, color = Red
	160 plot_xy t, 1,                  symbol = None, color = Green
	170 plot_xy t, b_ij_I  / b_ij_HTO, symbol = None, color = Blue
	180 DDt = total_time - get(1) : Nat = equi("Nat") - get(2) : It = equi("I") - get(3) : Htot = equi("Hto") - get(4) : Hdot = equi("Hdo") - get(5)
	190 # graph...
	200 plot_xy t, Nat / HTOt, line_width = 0, color = Red   , y_axis = 1
	210 plot_xy t, Hdot / HTOt,line_width = 0, color = Green , y_axis = 1
	220 plot_xy t, It / HTOt,  line_width = 0, color = Blue  , y_axis = 1
	230 put(total_time, 1) : put(equi("Nat"), 2) : put(equi("I"), 3) : put(equi("Hto"), 4) : put(equi("Hdo"), 5)
	 -end
	END
------------------------------------
Beginning of transport calculations.
------------------------------------

-------------------------------
Equilibrating initial solutions
-------------------------------

Using solution 1.	
Using surface 1.	

------------------------------Surface composition------------------------------

Diffuse Double Layer Surface-Complexation Model

Su            
	 -6.120e-13  Surface + diffuse layer charge, eq
	 -1.000e-01  Surface charge, eq
	 -9.649e+06  sigma, C/m²
	 -1.031e+00  psi, V
	  4.014e+01  -F*psi/RT
	  2.706e+17  exp(-F*psi/RT)
	  1.000e-03  specific area, m²/g
	  1.000e-03  m² for   1.000e+00 g

	Water in diffuse layer: 1.000e+00 kg, 100.0% of total DDL-water.

	Total moles in diffuse layer (excluding water), Donnan calculation.
	Donnan Layer potential, psi_DL = -1.236e-02 V.
	Boltzmann factor, exp(-psi_DL * F / RT) = 1.618e+00 (= c_DL / c_free if z is +1).

	Element       	     Moles
	Cl            	  6.1804e-02
	H             	  2.8171e-07
	Hdo           	  6.6000e-07
	Hto           	  6.6000e-07
	I             	  4.0790e-07
	Na            	  1.6180e-01
	Nat           	  1.0679e-06
	O             	  7.7862e-08

Su            
	  1.000e-01  moles
	                                   Mole                     Log
	Species               Moles    Fraction    Molality    Molality

	Su-               1.000e-01       1.000   1.000e-01      -1.000

-----------------------------Solution composition------------------------------

	Elements           Molality       Moles

	Cl                1.000e-01   1.000e-01
	Hdo               6.600e-07   6.600e-07
	Hto               6.600e-07   6.600e-07
	I                 6.600e-07   6.600e-07
	Na                1.000e-01   1.000e-01
	Nat               6.600e-07   6.600e-07

----------------------------Description of solution----------------------------

                                       pH  =   6.983      Charge balance
                                       pe  =   3.000      Adjusted to redox equilibrium
                        Activity of water  =   0.997
                           Ionic strength  =   1.000e-01
                       Mass of water (kg)  =   1.000e+00
                 Total alkalinity (eq/kg)  =  -2.391e-18
                    Total carbon (mol/kg)  =   0.000e+00
                       Total CO2 (mol/kg)  =   0.000e+00
                         Temperature (°C)  =  25.00
                  Electrical balance (eq)  =  -6.723e-14
 Percent error, 100*(Cat-|An|)/(Cat+|An|)  =  -0.00
                               Iterations  =   0
                                  Total H  = 1.110124e+02
                                  Total O  = 5.550622e+01

----------------------------Distribution of species----------------------------

                                               Log       Log       Log    mole V
   Species          Molality    Activity  Molality  Activity     Gamma   cm³/mol

   H+              1.260e-07   1.040e-07    -6.900    -6.983    -0.083      0.00
   OH-             1.260e-07   9.595e-08    -6.900    -7.018    -0.118     (0)  
   H2O             5.551e+01   9.966e-01     1.744    -0.001     0.000     18.07
Cl            1.000e-01
   Cl-             1.000e-01   7.642e-02    -1.000    -1.117    -0.117     (0)  
H(0)          1.496e-23
   H2              7.480e-24   7.654e-24   -23.126   -23.116     0.010     (0)  
Hdo           6.600e-07
   Hdo             6.600e-07   6.754e-07    -6.180    -6.170     0.010     (0)  
Hto           6.600e-07
   Hto             6.600e-07   6.754e-07    -6.180    -6.170     0.010     (0)  
I             6.600e-07
   I-              6.600e-07   5.156e-07    -6.180    -6.288    -0.107     (0)  
Na            1.000e-01
   Na+             1.000e-01   7.826e-02    -1.000    -1.106    -0.106     (0)  
Nat           6.600e-07
   Nat+            6.600e-07   5.156e-07    -6.180    -6.288    -0.107     (0)  
O(0)          0.000e+00
   O2              0.000e+00   0.000e+00   -46.161   -46.151     0.010     (0)  

------------------------------Saturation indices-------------------------------

  Phase               SI** log IAP   log K(298 K,   1 atm)

  H2(g)           -19.97    -23.12   -3.15  H2
  H2O(g)           -1.51     -0.00    1.51  H2O
  Halite           -3.81     -2.22    1.58  NaCl
  Hdo               6.83     -6.17  -13.00  Hdo
  Hto               6.83     -6.17  -13.00  Hto
  I                 5.61     -7.39  -13.00  NaI
  Nat               5.60     -7.40  -13.00  NatCl
  O2(g)           -43.26    -46.15   -2.89  O2

**For a gas, SI = log10(fugacity). Fugacity = pressure * phi / 1 atm.
  For ideal gases, phi = 1.

Using solution 2.	
Using surface 2.	

------------------------------Surface composition------------------------------

Diffuse Double Layer Surface-Complexation Model

Su            
	 -6.122e-13  Surface + diffuse layer charge, eq
	 -1.000e-01  Surface charge, eq
	 -9.649e+06  sigma, C/m²
	 -1.031e+00  psi, V
	  4.014e+01  -F*psi/RT
	  2.706e+17  exp(-F*psi/RT)
	  1.000e-03  specific area, m²/g
	  1.000e-03  m² for   1.000e+00 g

	Water in diffuse layer: 1.000e+00 kg, 100.0% of total DDL-water.

	Total moles in diffuse layer (excluding water), Donnan calculation.
	Donnan Layer potential, psi_DL = -1.236e-02 V.
	Boltzmann factor, exp(-psi_DL * F / RT) = 1.618e+00 (= c_DL / c_free if z is +1).

	Element       	     Moles
	Cl            	  6.1804e-02
	H             	  2.8171e-07
	Hdo           	  3.3000e-07
	Hto           	  3.3000e-07
	I             	  2.0395e-07
	Na            	  1.6180e-01
	Nat           	  5.3395e-07
	O             	  7.7862e-08

Su            
	  1.000e-01  moles
	                                   Mole                     Log
	Species               Moles    Fraction    Molality    Molality

	Su-               1.000e-01       1.000   1.000e-01      -1.000

-----------------------------Solution composition------------------------------

	Elements           Molality       Moles

	Cl                1.000e-01   1.000e-01
	Hdo               3.300e-07   3.300e-07
	Hto               3.300e-07   3.300e-07
	I                 3.300e-07   3.300e-07
	Na                1.000e-01   1.000e-01
	Nat               3.300e-07   3.300e-07

----------------------------Description of solution----------------------------

                                       pH  =   6.983      Charge balance
                                       pe  =   3.000      Adjusted to redox equilibrium
                        Activity of water  =   0.997
                           Ionic strength  =   1.000e-01
                       Mass of water (kg)  =   1.000e+00
                 Total alkalinity (eq/kg)  =  -5.527e-18
                    Total carbon (mol/kg)  =   0.000e+00
                       Total CO2 (mol/kg)  =   0.000e+00
                         Temperature (°C)  =  25.00
                  Electrical balance (eq)  =  -6.727e-14
 Percent error, 100*(Cat-|An|)/(Cat+|An|)  =  -0.00
                               Iterations  =   0
                                  Total H  = 1.110124e+02
                                  Total O  = 5.550622e+01

----------------------------Distribution of species----------------------------

                                               Log       Log       Log    mole V
   Species          Molality    Activity  Molality  Activity     Gamma   cm³/mol

   H+              1.260e-07   1.040e-07    -6.900    -6.983    -0.083      0.00
   OH-             1.260e-07   9.595e-08    -6.900    -7.018    -0.118     (0)  
   H2O             5.551e+01   9.966e-01     1.744    -0.001     0.000     18.07
Cl            1.000e-01
   Cl-             1.000e-01   7.642e-02    -1.000    -1.117    -0.117     (0)  
H(0)          1.496e-23
   H2              7.480e-24   7.654e-24   -23.126   -23.116     0.010     (0)  
Hdo           3.300e-07
   Hdo             3.300e-07   3.377e-07    -6.481    -6.471     0.010     (0)  
Hto           3.300e-07
   Hto             3.300e-07   3.377e-07    -6.481    -6.471     0.010     (0)  
I             3.300e-07
   I-              3.300e-07   2.578e-07    -6.481    -6.589    -0.107     (0)  
Na            1.000e-01
   Na+             1.000e-01   7.826e-02    -1.000    -1.106    -0.106     (0)  
Nat           3.300e-07
   Nat+            3.300e-07   2.578e-07    -6.481    -6.589    -0.107     (0)  
O(0)          0.000e+00
   O2              0.000e+00   0.000e+00   -46.161   -46.151     0.010     (0)  

------------------------------Saturation indices-------------------------------

  Phase               SI** log IAP   log K(298 K,   1 atm)

  H2(g)           -19.97    -23.12   -3.15  H2
  H2O(g)           -1.51     -0.00    1.51  H2O
  Halite           -3.81     -2.22    1.58  NaCl
  Hdo               6.53     -6.47  -13.00  Hdo
  Hto               6.53     -6.47  -13.00  Hto
  I                 5.30     -7.70  -13.00  NaI
  Nat               5.29     -7.71  -13.00  NatCl
  O2(g)           -43.26    -46.15   -2.89  O2

**For a gas, SI = log10(fugacity). Fugacity = pressure * phi / 1 atm.
  For ideal gases, phi = 1.

Using solution 3.	Solution after simulation 3.
Using surface 3.	
Using pure phase assemblage 3.	

-------------------------------Phase assemblage--------------------------------

                                                      Moles in assemblage
Phase               SI  log IAP  log K(T, P)   Initial       Final       Delta

Hdo              -0.47   -13.47    -13.00    0.000e+00               0.000e+00
Hto              -0.47   -13.47    -13.00    0.000e+00               0.000e+00
I                -1.70   -14.70    -13.00    0.000e+00               0.000e+00
Nat              -1.71   -14.71    -13.00    0.000e+00               0.000e+00

------------------------------Surface composition------------------------------

Diffuse Double Layer Surface-Complexation Model

Su            
	 -5.463e-13  Surface + diffuse layer charge, eq
	 -1.000e-01  Surface charge, eq
	 -9.649e+06  sigma, C/m²
	 -1.031e+00  psi, V
	  4.014e+01  -F*psi/RT
	  2.706e+17  exp(-F*psi/RT)
	  1.000e-03  specific area, m²/g
	  1.000e-03  m² for   1.000e+00 g

	Water in diffuse layer: 1.000e+00 kg, 100.0% of total DDL-water.

	Total moles in diffuse layer (excluding water), Donnan calculation.
	Donnan Layer potential, psi_DL = -1.236e-02 V.
	Boltzmann factor, exp(-psi_DL * F / RT) = 1.618e+00 (= c_DL / c_free if z is +1).

	Element       	     Moles
	Cl            	  6.1803e-02
	H             	  2.8171e-07
	Hdo           	  3.3000e-14
	Hto           	  3.3000e-14
	I             	  2.0395e-14
	Na            	  1.6180e-01
	Nat           	  5.3395e-14
	O             	  7.7862e-08

Su            
	  1.000e-01  moles
	                                   Mole                     Log
	Species               Moles    Fraction    Molality    Molality

	Su-               1.000e-01       1.000   1.000e-01      -1.000

-----------------------------Solution composition------------------------------

	Elements           Molality       Moles

	Cl                1.000e-01   1.000e-01
	Hdo               3.300e-14   3.300e-14
	Hto               3.300e-14   3.300e-14
	I                 3.300e-14   3.300e-14
	Na                1.000e-01   1.000e-01
	Nat               3.300e-14   3.300e-14

----------------------------Description of solution----------------------------

                                       pH  =   6.983      Charge balance
                                       pe  =   3.300      Adjusted to redox equilibrium
                        Activity of water  =   0.997
                           Ionic strength  =   1.000e-01
                       Mass of water (kg)  =   1.000e+00
                 Total alkalinity (eq/kg)  =   5.872e-18
                    Total carbon (mol/kg)  =   0.000e+00
                       Total CO2 (mol/kg)  =   0.000e+00
                         Temperature (°C)  =  25.00
                  Electrical balance (eq)  =  -6.739e-14
 Percent error, 100*(Cat-|An|)/(Cat+|An|)  =  -0.00
                               Iterations  =   1
                                  Total H  = 1.110124e+02
                                  Total O  = 5.550622e+01

----------------------------Distribution of species----------------------------

                                               Log       Log       Log    mole V
   Species          Molality    Activity  Molality  Activity     Gamma   cm³/mol

   OH-             1.260e-07   9.595e-08    -6.900    -7.018    -0.118     (0)  
   H+              1.260e-07   1.040e-07    -6.900    -6.983    -0.083      0.00
   H2O             5.551e+01   9.966e-01     1.744    -0.001     0.000     18.07
Cl            1.000e-01
   Cl-             1.000e-01   7.642e-02    -1.000    -1.117    -0.117     (0)  
H(0)          3.758e-24
   H2              1.879e-24   1.923e-24   -23.726   -23.716     0.010     (0)  
Hdo           3.300e-14
   Hdo             3.300e-14   3.377e-14   -13.481   -13.471     0.010     (0)  
Hto           3.300e-14
   Hto             3.300e-14   3.377e-14   -13.481   -13.471     0.010     (0)  
I             3.300e-14
   I-              3.300e-14   2.578e-14   -13.481   -13.589    -0.107     (0)  
Na            1.000e-01
   Na+             1.000e-01   7.826e-02    -1.000    -1.106    -0.106     (0)  
Nat           3.300e-14
   Nat+            3.300e-14   2.578e-14   -13.481   -13.589    -0.107     (0)  
O(0)          0.000e+00
   O2              0.000e+00   0.000e+00   -44.961   -44.951     0.010     (0)  

------------------------------Saturation indices-------------------------------

  Phase               SI** log IAP   log K(298 K,   1 atm)

  H2(g)           -20.57    -23.72   -3.15  H2
  H2O(g)           -1.51     -0.00    1.51  H2O
  Halite           -3.81     -2.22    1.58  NaCl
  Hdo              -0.47    -13.47  -13.00  Hdo
  Hto              -0.47    -13.47  -13.00  Hto
  I                -1.70    -14.70  -13.00  NaI
  Nat              -1.71    -14.71  -13.00  NatCl
  O2(g)           -42.06    -44.95   -2.89  O2

**For a gas, SI = log10(fugacity). Fugacity = pressure * phi / 1 atm.
  For ideal gases, phi = 1.

Transport step   1. Multicomponent diffusion run  12.

Using mix 1.	
Using surface 1.	

Mixture 1.	

	  0.000e+00 Solution 0	Solution after simulation 5.                           
	  1.000e+00 Solution 1	Solution after simulation 5.                           
	  0.000e+00 Solution 2	Solution after simulation 5.                           

------------------------------Surface composition------------------------------

Diffuse Double Layer Surface-Complexation Model

Su            
	  7.828e-10  Surface + diffuse layer charge, eq
	 -1.000e-01  Surface charge, eq
	 -9.649e+06  sigma, C/m²
	 -1.031e+00  psi, V
	  4.014e+01  -F*psi/RT
	  2.706e+17  exp(-F*psi/RT)
	  1.000e-03  specific area, m²/g
	  1.000e-03  m² for   1.000e+00 g

	Water in diffuse layer: 1.000e+00 kg, 100.0% of total DDL-water.

	Total moles in diffuse layer (excluding water), Donnan calculation.
	Donnan Layer potential, psi_DL = -1.236e-02 V.
	Boltzmann factor, exp(-psi_DL * F / RT) = 1.618e+00 (= c_DL / c_free if z is +1).

	Element       	     Moles
	Cl            	  6.1804e-02
	H             	  2.8173e-07
	Hdo           	  7.9901e-07
	Hto           	  7.9901e-07
	I             	  4.9382e-07
	Na            	  1.6180e-01
	Nat           	  1.2928e-06
	O             	  7.7877e-08

Su            
	  1.000e-01  moles
	                                   Mole                     Log
	Species               Moles    Fraction    Molality    Molality

	Su-               1.000e-01       1.000   1.000e-01      -1.000

-----------------------------Solution composition------------------------------

	Elements           Molality       Moles

	Cl                1.000e-01   1.000e-01
	Hdo               7.990e-07   7.990e-07
	Hto               7.990e-07   7.990e-07
	I                 7.990e-07   7.990e-07
	Na                1.000e-01   1.000e-01
	Nat               7.990e-07   7.990e-07

----------------------------Description of solution----------------------------

                                       pH  =   6.983      Charge balance
                                       pe  =  -3.269      Adjusted to redox equilibrium
                        Activity of water  =   0.997
                           Ionic strength  =   1.000e-01
                       Mass of water (kg)  =   1.000e+00
                 Total alkalinity (eq/kg)  =   4.901e-11
                    Total carbon (mol/kg)  =   0.000e+00
                       Total CO2 (mol/kg)  =   0.000e+00
                         Temperature (°C)  =  25.00
                  Electrical balance (eq)  =   4.318e-09
 Percent error, 100*(Cat-|An|)/(Cat+|An|)  =   0.00
                               Iterations  =   0
                                  Total H  = 1.110124e+02
                                  Total O  = 5.550622e+01

----------------------------Distribution of species----------------------------

                                               Log       Log       Log    mole V
   Species          Molality    Activity  Molality  Activity     Gamma   cm³/mol

   OH-             1.260e-07   9.597e-08    -6.900    -7.018    -0.118     (0)  
   H+              1.260e-07   1.040e-07    -6.900    -6.983    -0.083      0.00
   H2O             5.551e+01   9.966e-01     1.744    -0.001     0.000     18.07
Cl            1.000e-01
   Cl-             1.000e-01   7.642e-02    -1.000    -1.117    -0.117     (0)  
H(0)          5.166e-11
   H2              2.583e-11   2.643e-11   -10.588   -10.578     0.010     (0)  
Hdo           7.990e-07
   Hdo             7.990e-07   8.176e-07    -6.097    -6.087     0.010     (0)  
Hto           7.990e-07
   Hto             7.990e-07   8.176e-07    -6.097    -6.087     0.010     (0)  
I             7.990e-07
   I-              7.990e-07   6.242e-07    -6.097    -6.205    -0.107     (0)  
Na            1.000e-01
   Na+             1.000e-01   7.826e-02    -1.000    -1.106    -0.106     (0)  
Nat           7.990e-07
   Nat+            7.990e-07   6.242e-07    -6.097    -6.205    -0.107     (0)  
O(0)          0.000e+00
   O2              0.000e+00   0.000e+00   -71.237   -71.227     0.010     (0)  

------------------------------Saturation indices-------------------------------

  Phase               SI** log IAP   log K(298 K,   1 atm)

  H2(g)            -7.43    -10.58   -3.15  H2
  H2O(g)           -1.51     -0.00    1.51  H2O
  Halite           -3.81     -2.22    1.58  NaCl
  Hdo               6.91     -6.09  -13.00  Hdo
  Hto               6.91     -6.09  -13.00  Hto
  I                 5.69     -7.31  -13.00  NaI
  Nat               5.68     -7.32  -13.00  NatCl
  O2(g)           -68.33    -71.23   -2.89  O2

**For a gas, SI = log10(fugacity). Fugacity = pressure * phi / 1 atm.
  For ideal gases, phi = 1.

Using mix 2.	
Using surface 2.	

Mixture 2.	

	  0.000e+00 Solution 1	Solution after simulation 5.                           
	  1.000e+00 Solution 2	Solution after simulation 5.                           
	  0.000e+00 Solution 3	Solution after simulation 5.                           

------------------------------Surface composition------------------------------

Diffuse Double Layer Surface-Complexation Model

Su            
	  7.414e-10  Surface + diffuse layer charge, eq
	 -1.000e-01  Surface charge, eq
	 -9.649e+06  sigma, C/m²
	 -1.031e+00  psi, V
	  4.014e+01  -F*psi/RT
	  2.706e+17  exp(-F*psi/RT)
	  1.000e-03  specific area, m²/g
	  1.000e-03  m² for   1.000e+00 g

	Water in diffuse layer: 1.000e+00 kg, 100.0% of total DDL-water.

	Total moles in diffuse layer (excluding water), Donnan calculation.
	Donnan Layer potential, psi_DL = -1.236e-02 V.
	Boltzmann factor, exp(-psi_DL * F / RT) = 1.618e+00 (= c_DL / c_free if z is +1).

	Element       	     Moles
	Cl            	  6.1803e-02
	H             	  2.8176e-07
	Hdo           	  3.9839e-07
	Hto           	  3.9839e-07
	I             	  2.4622e-07
	Na            	  1.6180e-01
	Nat           	  6.4461e-07
	O             	  7.7892e-08

Su            
	  1.000e-01  moles
	                                   Mole                     Log
	Species               Moles    Fraction    Molality    Molality

	Su-               1.000e-01       1.000   1.000e-01      -1.000

-----------------------------Solution composition------------------------------

	Elements           Molality       Moles

	Cl                1.000e-01   1.000e-01
	Hdo               3.984e-07   3.984e-07
	Hto               3.984e-07   3.984e-07
	I                 3.984e-07   3.984e-07
	Na                1.000e-01   1.000e-01
	Nat               3.984e-07   3.984e-07

----------------------------Description of solution----------------------------

                                       pH  =   6.983      Charge balance
                                       pe  =  -3.420      Adjusted to redox equilibrium
                        Activity of water  =   0.997
                           Ionic strength  =   1.000e-01
                       Mass of water (kg)  =   1.000e+00
                 Total alkalinity (eq/kg)  =   9.830e-11
                    Total carbon (mol/kg)  =   0.000e+00
                       Total CO2 (mol/kg)  =   0.000e+00
                         Temperature (°C)  =  25.00
                  Electrical balance (eq)  =   4.831e-09
 Percent error, 100*(Cat-|An|)/(Cat+|An|)  =   0.00
                               Iterations  =   0
                                  Total H  = 1.110124e+02
                                  Total O  = 5.550622e+01

----------------------------Distribution of species----------------------------

                                               Log       Log       Log    mole V
   Species          Molality    Activity  Molality  Activity     Gamma   cm³/mol

   OH-             1.260e-07   9.598e-08    -6.900    -7.018    -0.118     (0)  
   H+              1.259e-07   1.039e-07    -6.900    -6.983    -0.083      0.00
   H2O             5.551e+01   9.966e-01     1.744    -0.001     0.000     18.07
Cl            1.000e-01
   Cl-             1.000e-01   7.642e-02    -1.000    -1.117    -0.117     (0)  
H(0)          1.034e-10
   H2              5.169e-11   5.289e-11   -10.287   -10.277     0.010     (0)  
Hdo           3.984e-07
   Hdo             3.984e-07   4.077e-07    -6.400    -6.390     0.010     (0)  
Hto           3.984e-07
   Hto             3.984e-07   4.077e-07    -6.400    -6.390     0.010     (0)  
I             3.984e-07
   I-              3.984e-07   3.112e-07    -6.400    -6.507    -0.107     (0)  
Na            1.000e-01
   Na+             1.000e-01   7.826e-02    -1.000    -1.106    -0.106     (0)  
Nat           3.984e-07
   Nat+            3.984e-07   3.112e-07    -6.400    -6.507    -0.107     (0)  
O(0)          0.000e+00
   O2              0.000e+00   0.000e+00   -71.840   -71.830     0.010     (0)  

------------------------------Saturation indices-------------------------------

  Phase               SI** log IAP   log K(298 K,   1 atm)

  H2(g)            -7.13    -10.28   -3.15  H2
  H2O(g)           -1.51     -0.00    1.51  H2O
  Halite           -3.81     -2.22    1.58  NaCl
  Hdo               6.61     -6.39  -13.00  Hdo
  Hto               6.61     -6.39  -13.00  Hto
  I                 5.39     -7.61  -13.00  NaI
  Nat               5.38     -7.62  -13.00  NatCl
  O2(g)           -68.94    -71.83   -2.89  O2

**For a gas, SI = log10(fugacity). Fugacity = pressure * phi / 1 atm.
  For ideal gases, phi = 1.

Using mix 3.	
Using surface 3.	
Using pure phase assemblage 3.	Pure-phase assemblage after simulation 5.

Mixture 3.	

	  0.000e+00 Solution 2	Solution after simulation 5.                           
	  1.000e+00 Solution 3	Solution after simulation 5.                           
	  0.000e+00 Solution 4	Solution after simulation 3.                           

-------------------------------Phase assemblage--------------------------------

                                                      Moles in assemblage
Phase               SI  log IAP  log K(T, P)   Initial       Final       Delta

Hdo               0.00   -13.00    -13.00    0.000e+00   1.936e-06   1.936e-06
Hto               0.00   -13.00    -13.00    0.000e+00   1.936e-06   1.936e-06
I                 0.00   -13.00    -13.00    0.000e+00   1.566e-06   1.566e-06
Nat              -0.00   -13.00    -13.00    0.000e+00   2.534e-06   2.534e-06

------------------------------Surface composition------------------------------

Diffuse Double Layer Surface-Complexation Model

Su            
	  1.467e-12  Surface + diffuse layer charge, eq
	 -1.000e-01  Surface charge, eq
	 -9.649e+06  sigma, C/m²
	 -1.031e+00  psi, V
	  4.014e+01  -F*psi/RT
	  2.706e+17  exp(-F*psi/RT)
	  1.000e-03  specific area, m²/g
	  1.000e-03  m² for   1.000e+00 g

	Water in diffuse layer: 1.000e+00 kg, 100.0% of total DDL-water.

	Total moles in diffuse layer (excluding water), Donnan calculation.
	Donnan Layer potential, psi_DL = -1.236e-02 V.
	Boltzmann factor, exp(-psi_DL * F / RT) = 1.618e+00 (= c_DL / c_free if z is +1).

	Element       	     Moles
	Cl            	  6.1803e-02
	H             	  2.8178e-07
	Hdo           	  9.7724e-14
	Hto           	  9.7724e-14
	I             	  1.0109e-12
	Na            	  1.6180e-01
	Nat           	  2.7102e-12
	O             	  7.7900e-08

Su            
	  1.000e-01  moles
	                                   Mole                     Log
	Species               Moles    Fraction    Molality    Molality

	Su-               1.000e-01       1.000   1.000e-01      -1.000

-----------------------------Solution composition------------------------------

	Elements           Molality       Moles

	Cl                1.000e-01   1.000e-01
	Hdo               9.772e-14   9.772e-14
	Hto               9.772e-14   9.772e-14
	I                 1.636e-12   1.636e-12
	Na                1.000e-01   1.000e-01
	Nat               1.675e-12   1.675e-12

----------------------------Description of solution----------------------------

                                       pH  =   6.983      Charge balance
                                       pe  =  -3.470      Adjusted to redox equilibrium
                        Activity of water  =   0.997
                           Ionic strength  =   1.000e-01
                       Mass of water (kg)  =   1.000e+00
                 Total alkalinity (eq/kg)  =   1.241e-10
                    Total carbon (mol/kg)  =   0.000e+00
                       Total CO2 (mol/kg)  =   0.000e+00
                         Temperature (°C)  =  25.00
                  Electrical balance (eq)  =   1.945e-11
 Percent error, 100*(Cat-|An|)/(Cat+|An|)  =   0.00
                               Iterations  =   1
                                  Total H  = 1.110124e+02
                                  Total O  = 5.550622e+01

----------------------------Distribution of species----------------------------

                                               Log       Log       Log    mole V
   Species          Molality    Activity  Molality  Activity     Gamma   cm³/mol

   OH-             1.260e-07   9.599e-08    -6.899    -7.018    -0.118     (0)  
   H+              1.259e-07   1.039e-07    -6.900    -6.983    -0.083      0.00
   H2O             5.551e+01   9.966e-01     1.744    -0.001     0.000     18.07
Cl            1.000e-01
   Cl-             1.000e-01   7.642e-02    -1.000    -1.117    -0.117     (0)  
H(0)          1.302e-10
   H2              6.511e-11   6.663e-11   -10.186   -10.176     0.010     (0)  
Hdo           9.772e-14
   Hdo             9.772e-14   1.000e-13   -13.010   -13.000     0.010     (0)  
Hto           9.772e-14
   Hto             9.772e-14   1.000e-13   -13.010   -13.000     0.010     (0)  
I             1.636e-12
   I-              1.636e-12   1.278e-12   -11.786   -11.894    -0.107     (0)  
Na            1.000e-01
   Na+             1.000e-01   7.826e-02    -1.000    -1.106    -0.106     (0)  
Nat           1.675e-12
   Nat+            1.675e-12   1.309e-12   -11.776   -11.883    -0.107     (0)  
O(0)          0.000e+00
   O2              0.000e+00   0.000e+00   -72.040   -72.030     0.010     (0)  

------------------------------Saturation indices-------------------------------

  Phase               SI** log IAP   log K(298 K,   1 atm)

  H2(g)            -7.03    -10.18   -3.15  H2
  H2O(g)           -1.51     -0.00    1.51  H2O
  Halite           -3.81     -2.22    1.58  NaCl
  Hdo               0.00    -13.00  -13.00  Hdo
  Hto               0.00    -13.00  -13.00  Hto
  I                 0.00    -13.00  -13.00  NaI
  Nat              -0.00    -13.00  -13.00  NatCl
  O2(g)           -69.14    -72.03   -2.89  O2

**For a gas, SI = log10(fugacity). Fugacity = pressure * phi / 1 atm.
  For ideal gases, phi = 1.

Transport step   2. Multicomponent diffusion run  12.

Using mix 1.	
Using surface 1.	

Mixture 1.	

	  0.000e+00 Solution 0	Solution after simulation 5.                           
	  1.000e+00 Solution 1	Solution after simulation 5.                           
	  0.000e+00 Solution 2	Solution after simulation 5.                           

------------------------------Surface composition------------------------------

Diffuse Double Layer Surface-Complexation Model

Su            
	  1.637e-12  Surface + diffuse layer charge, eq
	 -1.000e-01  Surface charge, eq
	 -9.649e+06  sigma, C/m²
	 -1.031e+00  psi, V
	  4.014e+01  -F*psi/RT
	  2.706e+17  exp(-F*psi/RT)
	  1.000e-03  specific area, m²/g
	  1.000e-03  m² for   1.000e+00 g

	Water in diffuse layer: 1.000e+00 kg, 100.0% of total DDL-water.

	Total moles in diffuse layer (excluding water), Donnan calculation.
	Donnan Layer potential, psi_DL = -1.236e-02 V.
	Boltzmann factor, exp(-psi_DL * F / RT) = 1.618e+00 (= c_DL / c_free if z is +1).

	Element       	     Moles
	Cl            	  6.1803e-02
	H             	  2.8172e-07
	Hdo           	  7.9999e-07
	Hto           	  7.9999e-07
	I             	  4.9442e-07
	Na            	  1.6180e-01
	Nat           	  1.2944e-06
	O             	  7.7868e-08

Su            
	  1.000e-01  moles
	                                   Mole                     Log
	Species               Moles    Fraction    Molality    Molality

	Su-               1.000e-01       1.000   1.000e-01      -1.000

-----------------------------Solution composition------------------------------

	Elements           Molality       Moles

	Cl                1.000e-01   1.000e-01
	Hdo               8.000e-07   8.000e-07
	Hto               8.000e-07   8.000e-07
	I                 8.000e-07   8.000e-07
	Na                1.000e-01   1.000e-01
	Nat               8.000e-07   8.000e-07

----------------------------Description of solution----------------------------

                                       pH  =   6.983      Charge balance
                                       pe  =  -3.075      Adjusted to redox equilibrium
                        Activity of water  =   0.997
                           Ionic strength  =   1.000e-01
                       Mass of water (kg)  =   1.000e+00
                 Total alkalinity (eq/kg)  =   2.011e-11
                    Total carbon (mol/kg)  =   0.000e+00
                       Total CO2 (mol/kg)  =   0.000e+00
                         Temperature (°C)  =  25.00
                  Electrical balance (eq)  =   6.099e-09
 Percent error, 100*(Cat-|An|)/(Cat+|An|)  =   0.00
                               Iterations  =   0
                                  Total H  = 1.110124e+02
                                  Total O  = 5.550622e+01

----------------------------Distribution of species----------------------------

                                               Log       Log       Log    mole V
   Species          Molality    Activity  Molality  Activity     Gamma   cm³/mol

   OH-             1.260e-07   9.595e-08    -6.900    -7.018    -0.118     (0)  
   H+              1.260e-07   1.040e-07    -6.900    -6.983    -0.083      0.00
   H2O             5.551e+01   9.966e-01     1.744    -0.001     0.000     18.07
Cl            1.000e-01
   Cl-             1.000e-01   7.642e-02    -1.000    -1.117    -0.117     (0)  
H(0)          2.109e-11
   H2              1.055e-11   1.079e-11   -10.977   -10.967     0.010     (0)  
Hdo           8.000e-07
   Hdo             8.000e-07   8.186e-07    -6.097    -6.087     0.010     (0)  
Hto           8.000e-07
   Hto             8.000e-07   8.186e-07    -6.097    -6.087     0.010     (0)  
I             8.000e-07
   I-              8.000e-07   6.250e-07    -6.097    -6.204    -0.107     (0)  
Na            1.000e-01
   Na+             1.000e-01   7.826e-02    -1.000    -1.106    -0.106     (0)  
Nat           8.000e-07
   Nat+            8.000e-07   6.250e-07    -6.097    -6.204    -0.107     (0)  
O(0)          0.000e+00
   O2              0.000e+00   0.000e+00   -70.459   -70.449     0.010     (0)  

------------------------------Saturation indices-------------------------------

  Phase               SI** log IAP   log K(298 K,   1 atm)

  H2(g)            -7.82    -10.97   -3.15  H2
  H2O(g)           -1.51     -0.00    1.51  H2O
  Halite           -3.81     -2.22    1.58  NaCl
  Hdo               6.91     -6.09  -13.00  Hdo
  Hto               6.91     -6.09  -13.00  Hto
  I                 5.69     -7.31  -13.00  NaI
  Nat               5.68     -7.32  -13.00  NatCl
  O2(g)           -67.56    -70.45   -2.89  O2

**For a gas, SI = log10(fugacity). Fugacity = pressure * phi / 1 atm.
  For ideal gases, phi = 1.

Using mix 2.	
Using surface 2.	

Mixture 2.	

	  0.000e+00 Solution 1	Solution after simulation 5.                           
	  1.000e+00 Solution 2	Solution after simulation 5.                           
	  0.000e+00 Solution 3	Solution after simulation 5.                           

------------------------------Surface composition------------------------------

Diffuse Double Layer Surface-Complexation Model

Su            
	  7.414e-10  Surface + diffuse layer charge, eq
	 -1.000e-01  Surface charge, eq
	 -9.649e+06  sigma, C/m²
	 -1.031e+00  psi, V
	  4.014e+01  -F*psi/RT
	  2.706e+17  exp(-F*psi/RT)
	  1.000e-03  specific area, m²/g
	  1.000e-03  m² for   1.000e+00 g

	Water in diffuse layer: 1.000e+00 kg, 100.0% of total DDL-water.

	Total moles in diffuse layer (excluding water), Donnan calculation.
	Donnan Layer potential, psi_DL = -1.236e-02 V.
	Boltzmann factor, exp(-psi_DL * F / RT) = 1.618e+00 (= c_DL / c_free if z is +1).

	Element       	     Moles
	Cl            	  6.1803e-02
	H             	  2.8174e-07
	Hdo           	  3.9998e-07
	Hto           	  3.9998e-07
	I             	  2.4720e-07
	Na            	  1.6180e-01
	Nat           	  6.4718e-07
	O             	  7.7879e-08

Su            
	  1.000e-01  moles
	                                   Mole                     Log
	Species               Moles    Fraction    Molality    Molality

	Su-               1.000e-01       1.000   1.000e-01      -1.000

-----------------------------Solution composition------------------------------

	Elements           Molality       Moles

	Cl                1.000e-01   1.000e-01
	Hdo               4.000e-07   4.000e-07
	Hto               4.000e-07   4.000e-07
	I                 4.000e-07   4.000e-07
	Na                1.000e-01   1.000e-01
	Nat               4.000e-07   4.000e-07

----------------------------Description of solution----------------------------

                                       pH  =   6.983      Charge balance
                                       pe  =  -3.291      Adjusted to redox equilibrium
                        Activity of water  =   0.997
                           Ionic strength  =   1.000e-01
                       Mass of water (kg)  =   1.000e+00
                 Total alkalinity (eq/kg)  =   5.457e-11
                    Total carbon (mol/kg)  =   0.000e+00
                       Total CO2 (mol/kg)  =   0.000e+00
                         Temperature (°C)  =  25.00
                  Electrical balance (eq)  =   1.373e-08
 Percent error, 100*(Cat-|An|)/(Cat+|An|)  =   0.00
                               Iterations  =   0
                                  Total H  = 1.110124e+02
                                  Total O  = 5.550622e+01

----------------------------Distribution of species----------------------------

                                               Log       Log       Log    mole V
   Species          Molality    Activity  Molality  Activity     Gamma   cm³/mol

   OH-             1.260e-07   9.597e-08    -6.900    -7.018    -0.118     (0)  
   H+              1.260e-07   1.040e-07    -6.900    -6.983    -0.083      0.00
   H2O             5.551e+01   9.966e-01     1.744    -0.001     0.000     18.07
Cl            1.000e-01
   Cl-             1.000e-01   7.642e-02    -1.000    -1.117    -0.117     (0)  
H(0)          5.714e-11
   H2              2.857e-11   2.924e-11   -10.544   -10.534     0.010     (0)  
Hdo           4.000e-07
   Hdo             4.000e-07   4.093e-07    -6.398    -6.388     0.010     (0)  
Hto           4.000e-07
   Hto             4.000e-07   4.093e-07    -6.398    -6.388     0.010     (0)  
I             4.000e-07
   I-              4.000e-07   3.125e-07    -6.398    -6.505    -0.107     (0)  
Na            1.000e-01
   Na+             1.000e-01   7.826e-02    -1.000    -1.106    -0.106     (0)  
Nat           4.000e-07
   Nat+            4.000e-07   3.125e-07    -6.398    -6.505    -0.107     (0)  
O(0)          0.000e+00
   O2              0.000e+00   0.000e+00   -71.325   -71.315     0.010     (0)  

------------------------------Saturation indices-------------------------------

  Phase               SI** log IAP   log K(298 K,   1 atm)

  H2(g)            -7.38    -10.53   -3.15  H2
  H2O(g)           -1.51     -0.00    1.51  H2O
  Halite           -3.81     -2.22    1.58  NaCl
  Hdo               6.61     -6.39  -13.00  Hdo
  Hto               6.61     -6.39  -13.00  Hto
  I                 5.39     -7.61  -13.00  NaI
  Nat               5.38     -7.62  -13.00  NatCl
  O2(g)           -68.42    -71.31   -2.89  O2

**For a gas, SI = log10(fugacity). Fugacity = pressure * phi / 1 atm.
  For ideal gases, phi = 1.

Using mix 3.	
Using surface 3.	
Using pure phase assemblage 3.	Pure-phase assemblage after simulation 5.

Mixture 3.	

	  0.000e+00 Solution 2	Solution after simulation 5.                           
	  1.000e+00 Solution 3	Solution after simulation 5.                           
	  0.000e+00 Solution 4	Solution after simulation 3.                           

-------------------------------Phase assemblage--------------------------------

                                                      Moles in assemblage
Phase               SI  log IAP  log K(T, P)   Initial       Final       Delta

Hdo               0.00   -13.00    -13.00    1.936e-06   4.007e-06   2.071e-06
Hto               0.00   -13.00    -13.00    1.936e-06   4.007e-06   2.071e-06
I                 0.00   -13.00    -13.00    1.566e-06   3.242e-06   1.676e-06
Nat               0.00   -13.00    -13.00    2.534e-06   5.246e-06   2.711e-06

------------------------------Surface composition------------------------------

Diffuse Double Layer Surface-Complexation Model

Su            
	  1.467e-12  Surface + diffuse layer charge, eq
	 -1.000e-01  Surface charge, eq
	 -9.649e+06  sigma, C/m²
	 -1.031e+00  psi, V
	  4.014e+01  -F*psi/RT
	  2.706e+17  exp(-F*psi/RT)
	  1.000e-03  specific area, m²/g
	  1.000e-03  m² for   1.000e+00 g

	Water in diffuse layer: 1.000e+00 kg, 100.0% of total DDL-water.

	Total moles in diffuse layer (excluding water), Donnan calculation.
	Donnan Layer potential, psi_DL = -1.236e-02 V.
	Boltzmann factor, exp(-psi_DL * F / RT) = 1.618e+00 (= c_DL / c_free if z is +1).

	Element       	     Moles
	Cl            	  6.1803e-02
	H             	  2.8175e-07
	Hdo           	  9.7724e-14
	Hto           	  9.7724e-14
	I             	  1.0109e-12
	Na            	  1.6180e-01
	Nat           	  2.7102e-12
	O             	  7.7884e-08

Su            
	  1.000e-01  moles
	                                   Mole                     Log
	Species               Moles    Fraction    Molality    Molality

	Su-               1.000e-01       1.000   1.000e-01      -1.000

-----------------------------Solution composition------------------------------

	Elements           Molality       Moles

	Cl                1.000e-01   1.000e-01
	Hdo               9.772e-14   9.772e-14
	Hto               9.772e-14   9.772e-14
	I                 1.636e-12   1.636e-12
	Na                1.000e-01   1.000e-01
	Nat               1.675e-12   1.675e-12

----------------------------Description of solution----------------------------

                                       pH  =   6.983      Charge balance
                                       pe  =  -3.352      Adjusted to redox equilibrium
                        Activity of water  =   0.997
                           Ionic strength  =   1.000e-01
                       Mass of water (kg)  =   1.000e+00
                 Total alkalinity (eq/kg)  =   7.245e-11
                    Total carbon (mol/kg)  =   0.000e+00
                       Total CO2 (mol/kg)  =   0.000e+00
                         Temperature (°C)  =  25.00
                  Electrical balance (eq)  =   3.706e-11
 Percent error, 100*(Cat-|An|)/(Cat+|An|)  =   0.00
                               Iterations  =   1
                                  Total H  = 1.110124e+02
                                  Total O  = 5.550622e+01

----------------------------Distribution of species----------------------------

                                               Log       Log       Log    mole V
   Species          Molality    Activity  Molality  Activity     Gamma   cm³/mol

   OH-             1.260e-07   9.597e-08    -6.900    -7.018    -0.118     (0)  
   H+              1.259e-07   1.040e-07    -6.900    -6.983    -0.083      0.00
   H2O             5.551e+01   9.966e-01     1.744    -0.001     0.000     18.07
Cl            1.000e-01
   Cl-             1.000e-01   7.642e-02    -1.000    -1.117    -0.117     (0)  
H(0)          7.550e-11
   H2              3.775e-11   3.863e-11   -10.423   -10.413     0.010     (0)  
Hdo           9.772e-14
   Hdo             9.772e-14   1.000e-13   -13.010   -13.000     0.010     (0)  
Hto           9.772e-14
   Hto             9.772e-14   1.000e-13   -13.010   -13.000     0.010     (0)  
I             1.636e-12
   I-              1.636e-12   1.278e-12   -11.786   -11.894    -0.107     (0)  
Na            1.000e-01
   Na+             1.000e-01   7.826e-02    -1.000    -1.106    -0.106     (0)  
Nat           1.675e-12
   Nat+            1.675e-12   1.309e-12   -11.776   -11.883    -0.107     (0)  
O(0)          0.000e+00
   O2              0.000e+00   0.000e+00   -71.567   -71.557     0.010     (0)  

------------------------------Saturation indices-------------------------------

  Phase               SI** log IAP   log K(298 K,   1 atm)

  H2(g)            -7.26    -10.41   -3.15  H2
  H2O(g)           -1.51     -0.00    1.51  H2O
  Halite           -3.81     -2.22    1.58  NaCl
  Hdo               0.00    -13.00  -13.00  Hdo
  Hto               0.00    -13.00  -13.00  Hto
  I                 0.00    -13.00  -13.00  NaI
  Nat               0.00    -13.00  -13.00  NatCl
  O2(g)           -68.66    -71.56   -2.89  O2

**For a gas, SI = log10(fugacity). Fugacity = pressure * phi / 1 atm.
  For ideal gases, phi = 1.

Transport step   3. Multicomponent diffusion run  12.

Using mix 1.	
Using surface 1.	

Mixture 1.	

	  0.000e+00 Solution 0	Solution after simulation 5.                           
	  1.000e+00 Solution 1	Solution after simulation 5.                           
	  0.000e+00 Solution 2	Solution after simulation 5.                           

------------------------------Surface composition------------------------------

Diffuse Double Layer Surface-Complexation Model

Su            
	  6.984e-10  Surface + diffuse layer charge, eq
	 -1.000e-01  Surface charge, eq
	 -9.649e+06  sigma, C/m²
	 -1.031e+00  psi, V
	  4.014e+01  -F*psi/RT
	  2.706e+17  exp(-F*psi/RT)
	  1.000e-03  specific area, m²/g
	  1.000e-03  m² for   1.000e+00 g

	Water in diffuse layer: 1.000e+00 kg, 100.0% of total DDL-water.

	Total moles in diffuse layer (excluding water), Donnan calculation.
	Donnan Layer potential, psi_DL = -1.236e-02 V.
	Boltzmann factor, exp(-psi_DL * F / RT) = 1.618e+00 (= c_DL / c_free if z is +1).

	Element       	     Moles
	Cl            	  6.1803e-02
	H             	  2.8171e-07
	Hdo           	  8.0000e-07
	Hto           	  8.0000e-07
	I             	  4.9443e-07
	Na            	  1.6180e-01
	Nat           	  1.2944e-06
	O             	  7.7866e-08

Su            
	  1.000e-01  moles
	                                   Mole                     Log
	Species               Moles    Fraction    Molality    Molality

	Su-               1.000e-01       1.000   1.000e-01      -1.000

-----------------------------Solution composition------------------------------

	Elements           Molality       Moles

	Cl                1.000e-01   1.000e-01
	Hdo               8.000e-07   8.000e-07
	Hto               8.000e-07   8.000e-07
	I                 8.000e-07   8.000e-07
	Na                1.000e-01   1.000e-01
	Nat               8.000e-07   8.000e-07

----------------------------Description of solution----------------------------

                                       pH  =   6.983      Charge balance
                                       pe  =  -2.975      Adjusted to redox equilibrium
                        Activity of water  =   0.997
                           Ionic strength  =   1.000e-01
                       Mass of water (kg)  =   1.000e+00
                 Total alkalinity (eq/kg)  =   1.274e-11
                    Total carbon (mol/kg)  =   0.000e+00
                       Total CO2 (mol/kg)  =   0.000e+00
                         Temperature (°C)  =  25.00
                  Electrical balance (eq)  =   2.077e-08
 Percent error, 100*(Cat-|An|)/(Cat+|An|)  =   0.00
                               Iterations  =   0
                                  Total H  = 1.110124e+02
                                  Total O  = 5.550622e+01

----------------------------Distribution of species----------------------------

                                               Log       Log       Log    mole V
   Species          Molality    Activity  Molality  Activity     Gamma   cm³/mol

   OH-             1.260e-07   9.595e-08    -6.900    -7.018    -0.118     (0)  
   H+              1.260e-07   1.040e-07    -6.900    -6.983    -0.083      0.00
   H2O             5.551e+01   9.966e-01     1.744    -0.001     0.000     18.07
Cl            1.000e-01
   Cl-             1.000e-01   7.642e-02    -1.000    -1.117    -0.117     (0)  
H(0)          1.335e-11
   H2              6.674e-12   6.830e-12   -11.176   -11.166     0.010     (0)  
Hdo           8.000e-07
   Hdo             8.000e-07   8.186e-07    -6.097    -6.087     0.010     (0)  
Hto           8.000e-07
   Hto             8.000e-07   8.186e-07    -6.097    -6.087     0.010     (0)  
I             8.000e-07
   I-              8.000e-07   6.250e-07    -6.097    -6.204    -0.107     (0)  
Na            1.000e-01
   Na+             1.000e-01   7.826e-02    -1.000    -1.106    -0.106     (0)  
Nat           8.000e-07
   Nat+            8.000e-07   6.250e-07    -6.097    -6.204    -0.107     (0)  
O(0)          0.000e+00
   O2              0.000e+00   0.000e+00   -70.062   -70.052     0.010     (0)  

------------------------------Saturation indices-------------------------------

  Phase               SI** log IAP   log K(298 K,   1 atm)

  H2(g)            -8.02    -11.17   -3.15  H2
  H2O(g)           -1.51     -0.00    1.51  H2O
  Halite           -3.81     -2.22    1.58  NaCl
  Hdo               6.91     -6.09  -13.00  Hdo
  Hto               6.91     -6.09  -13.00  Hto
  I                 5.69     -7.31  -13.00  NaI
  Nat               5.68     -7.32  -13.00  NatCl
  O2(g)           -67.16    -70.05   -2.89  O2

**For a gas, SI = log10(fugacity). Fugacity = pressure * phi / 1 atm.
  For ideal gases, phi = 1.

Using mix 2.	
Using surface 2.	

Mixture 2.	

	  0.000e+00 Solution 1	Solution after simulation 5.                           
	  1.000e+00 Solution 2	Solution after simulation 5.                           
	  0.000e+00 Solution 3	Solution after simulation 5.                           

------------------------------Surface composition------------------------------

Diffuse Double Layer Surface-Complexation Model

Su            
	 -4.397e-12  Surface + diffuse layer charge, eq
	 -1.000e-01  Surface charge, eq
	 -9.649e+06  sigma, C/m²
	 -1.031e+00  psi, V
	  4.014e+01  -F*psi/RT
	  2.706e+17  exp(-F*psi/RT)
	  1.000e-03  specific area, m²/g
	  1.000e-03  m² for   1.000e+00 g

	Water in diffuse layer: 1.000e+00 kg, 100.0% of total DDL-water.

	Total moles in diffuse layer (excluding water), Donnan calculation.
	Donnan Layer potential, psi_DL = -1.236e-02 V.
	Boltzmann factor, exp(-psi_DL * F / RT) = 1.618e+00 (= c_DL / c_free if z is +1).

	Element       	     Moles
	Cl            	  6.1803e-02
	H             	  2.8173e-07
	Hdo           	  4.0000e-07
	Hto           	  4.0000e-07
	I             	  2.4721e-07
	Na            	  1.6180e-01
	Nat           	  6.4721e-07
	O             	  7.7873e-08

Su            
	  1.000e-01  moles
	                                   Mole                     Log
	Species               Moles    Fraction    Molality    Molality

	Su-               1.000e-01       1.000   1.000e-01      -1.000

-----------------------------Solution composition------------------------------

	Elements           Molality       Moles

	Cl                1.000e-01   1.000e-01
	Hdo               4.000e-07   4.000e-07
	Hto               4.000e-07   4.000e-07
	I                 4.000e-07   4.000e-07
	Na                1.000e-01   1.000e-01
	Nat               4.000e-07   4.000e-07

----------------------------Description of solution----------------------------

                                       pH  =   6.983      Charge balance
                                       pe  =  -3.191      Adjusted to redox equilibrium
                        Activity of water  =   0.997
                           Ionic strength  =   1.000e-01
                       Mass of water (kg)  =   1.000e+00
                 Total alkalinity (eq/kg)  =   3.456e-11
                    Total carbon (mol/kg)  =   0.000e+00
                       Total CO2 (mol/kg)  =   0.000e+00
                         Temperature (°C)  =  25.00
                  Electrical balance (eq)  =   1.512e-08
 Percent error, 100*(Cat-|An|)/(Cat+|An|)  =   0.00
                               Iterations  =   0
                                  Total H  = 1.110124e+02
                                  Total O  = 5.550622e+01

----------------------------Distribution of species----------------------------

                                               Log       Log       Log    mole V
   Species          Molality    Activity  Molality  Activity     Gamma   cm³/mol

   OH-             1.260e-07   9.596e-08    -6.900    -7.018    -0.118     (0)  
   H+              1.260e-07   1.040e-07    -6.900    -6.983    -0.083      0.00
   H2O             5.551e+01   9.966e-01     1.744    -0.001     0.000     18.07
Cl            1.000e-01
   Cl-             1.000e-01   7.642e-02    -1.000    -1.117    -0.117     (0)  
H(0)          3.608e-11
   H2              1.804e-11   1.846e-11   -10.744   -10.734     0.010     (0)  
Hdo           4.000e-07
   Hdo             4.000e-07   4.093e-07    -6.398    -6.388     0.010     (0)  
Hto           4.000e-07
   Hto             4.000e-07   4.093e-07    -6.398    -6.388     0.010     (0)  
I             4.000e-07
   I-              4.000e-07   3.125e-07    -6.398    -6.505    -0.107     (0)  
Na            1.000e-01
   Na+             1.000e-01   7.826e-02    -1.000    -1.106    -0.106     (0)  
Nat           4.000e-07
   Nat+            4.000e-07   3.125e-07    -6.398    -6.505    -0.107     (0)  
O(0)          0.000e+00
   O2              0.000e+00   0.000e+00   -70.925   -70.915     0.010     (0)  

------------------------------Saturation indices-------------------------------

  Phase               SI** log IAP   log K(298 K,   1 atm)

  H2(g)            -7.58    -10.73   -3.15  H2
  H2O(g)           -1.51     -0.00    1.51  H2O
  Halite           -3.81     -2.22    1.58  NaCl
  Hdo               6.61     -6.39  -13.00  Hdo
  Hto               6.61     -6.39  -13.00  Hto
  I                 5.39     -7.61  -13.00  NaI
  Nat               5.38     -7.62  -13.00  NatCl
  O2(g)           -68.02    -70.92   -2.89  O2

**For a gas, SI = log10(fugacity). Fugacity = pressure * phi / 1 atm.
  For ideal gases, phi = 1.

Using mix 3.	
Using surface 3.	
Using pure phase assemblage 3.	Pure-phase assemblage after simulation 5.

Mixture 3.	

	  0.000e+00 Solution 2	Solution after simulation 5.                           
	  1.000e+00 Solution 3	Solution after simulation 5.                           
	  0.000e+00 Solution 4	Solution after simulation 3.                           

-------------------------------Phase assemblage--------------------------------

                                                      Moles in assemblage
Phase               SI  log IAP  log K(T, P)   Initial       Final       Delta

Hdo               0.00   -13.00    -13.00    4.007e-06   6.081e-06   2.074e-06
Hto               0.00   -13.00    -13.00    4.007e-06   6.081e-06   2.074e-06
I                 0.00   -13.00    -13.00    3.242e-06   4.919e-06   1.678e-06
Nat               0.00   -13.00    -13.00    5.246e-06   7.960e-06   2.714e-06

------------------------------Surface composition------------------------------

Diffuse Double Layer Surface-Complexation Model

Su            
	  4.270e-12  Surface + diffuse layer charge, eq
	 -1.000e-01  Surface charge, eq
	 -9.649e+06  sigma, C/m²
	 -1.031e+00  psi, V
	  4.014e+01  -F*psi/RT
	  2.706e+17  exp(-F*psi/RT)
	  1.000e-03  specific area, m²/g
	  1.000e-03  m² for   1.000e+00 g

	Water in diffuse layer: 1.000e+00 kg, 100.0% of total DDL-water.

	Total moles in diffuse layer (excluding water), Donnan calculation.
	Donnan Layer potential, psi_DL = -1.236e-02 V.
	Boltzmann factor, exp(-psi_DL * F / RT) = 1.618e+00 (= c_DL / c_free if z is +1).

	Element       	     Moles
	Cl            	  6.1802e-02
	H             	  2.8173e-07
	Hdo           	  9.7724e-14
[...]
	  0.000e+00 Solution 4	Solution after simulation 3.                           

-------------------------------Phase assemblage--------------------------------

                                                      Moles in assemblage
Phase               SI  log IAP  log K(T, P)   Initial       Final       Delta

Hdo               0.00   -13.00    -13.00    2.578e-05   2.711e-05   1.328e-06
Hto               0.00   -13.00    -13.00    2.578e-05   2.711e-05   1.328e-06
I                 0.00   -13.00    -13.00    2.123e-05   2.239e-05   1.167e-06
Nat               0.00   -13.00    -13.00    3.564e-05   3.786e-05   2.215e-06

------------------------------Surface composition------------------------------

Diffuse Double Layer Surface-Complexation Model

Su            
	  5.334e-12  Surface + diffuse layer charge, eq
	 -1.000e-01  Surface charge, eq
	 -9.649e+06  sigma, C/m²
	 -1.031e+00  psi, V
	  4.014e+01  -F*psi/RT
	  2.706e+17  exp(-F*psi/RT)
	  1.000e-03  specific area, m²/g
	  1.000e-03  m² for   1.000e+00 g

	Water in diffuse layer: 1.000e-01 kg, 100.0% of total DDL-water.

	Total moles in diffuse layer (excluding water), Donnan calculation.
	Donnan Layer potential, psi_DL = -5.941e-02 V.
	Boltzmann factor, exp(-psi_DL * F / RT) = 1.010e+01 (= c_DL / c_free if z is +1).

	Element       	     Moles
	Cl            	  9.9017e-04
	H             	  1.2837e-07
	Hdo           	  9.7724e-15
	Hto           	  9.7724e-15
	I             	  1.6196e-14
	Na            	  1.0099e-01
	Nat           	  1.6916e-12
	O             	  1.3599e-09

Su            
	  1.000e-01  moles
	                                   Mole                     Log
	Species               Moles    Fraction    Molality    Molality

	Su-               1.000e-01       1.000   1.000e-01      -1.000

-----------------------------Solution composition------------------------------

	Elements           Molality       Moles

	Cl                1.000e-01   1.000e-01
	Hdo               9.772e-14   9.772e-14
	Hto               9.772e-14   9.772e-14
	I                 1.636e-12   1.636e-12
	Na                1.000e-01   1.000e-01
	Nat               1.675e-12   1.675e-12

----------------------------Description of solution----------------------------

                                       pH  =   6.983      Charge balance
                                       pe  =  12.226      Adjusted to redox equilibrium
                        Activity of water  =   0.997
                           Ionic strength  =   1.000e-01
                       Mass of water (kg)  =   1.000e+00
                 Total alkalinity (eq/kg)  =   2.279e-10
                    Total carbon (mol/kg)  =   0.000e+00
                       Total CO2 (mol/kg)  =   0.000e+00
                         Temperature (°C)  =  25.00
                  Electrical balance (eq)  =   1.841e-09
 Percent error, 100*(Cat-|An|)/(Cat+|An|)  =   0.00
                               Iterations  =   1
                                  Total H  = 1.110124e+02
                                  Total O  = 5.550622e+01

----------------------------Distribution of species----------------------------

                                               Log       Log       Log    mole V
   Species          Molality    Activity  Molality  Activity     Gamma   cm³/mol

   OH-             1.261e-07   9.603e-08    -6.899    -7.018    -0.118     (0)  
   H+              1.259e-07   1.039e-07    -6.900    -6.983    -0.083      0.00
   H2O             5.551e+01   9.966e-01     1.744    -0.001     0.000     18.07
Cl            1.000e-01
   Cl-             1.000e-01   7.642e-02    -1.000    -1.117    -0.117     (0)  
H(0)          0.000e+00
   H2              0.000e+00   0.000e+00   -41.579   -41.569     0.010     (0)  
Hdo           9.772e-14
   Hdo             9.772e-14   1.000e-13   -13.010   -13.000     0.010     (0)  
Hto           9.772e-14
   Hto             9.772e-14   1.000e-13   -13.010   -13.000     0.010     (0)  
I             1.636e-12
   I-              1.636e-12   1.278e-12   -11.786   -11.894    -0.107     (0)  
Na            1.000e-01
   Na+             1.000e-01   7.826e-02    -1.000    -1.106    -0.106     (0)  
Nat           1.675e-12
   Nat+            1.675e-12   1.309e-12   -11.776   -11.883    -0.107     (0)  
O(0)          1.113e-09
   O2              5.565e-10   5.695e-10    -9.255    -9.245     0.010     (0)  

------------------------------Saturation indices-------------------------------

  Phase               SI** log IAP   log K(298 K,   1 atm)

  H2(g)           -38.42    -41.57   -3.15  H2
  H2O(g)           -1.51     -0.00    1.51  H2O
  Halite           -3.81     -2.22    1.58  NaCl
  Hdo               0.00    -13.00  -13.00  Hdo
  Hto               0.00    -13.00  -13.00  Hto
  I                 0.00    -13.00  -13.00  NaI
  Nat               0.00    -13.00  -13.00  NatCl
  O2(g)            -6.35     -9.24   -2.89  O2

**For a gas, SI = log10(fugacity). Fugacity = pressure * phi / 1 atm.
  For ideal gases, phi = 1.

Transport step  10. Multicomponent diffusion run  12.

Using mix 1.	
Using surface 1.	

Mixture 1.	

	  0.000e+00 Solution 0	Solution after simulation 7.                           
	  1.000e+00 Solution 1	Solution after simulation 7.                           
	  0.000e+00 Solution 2	Solution after simulation 7.                           

------------------------------Surface composition------------------------------

Diffuse Double Layer Surface-Complexation Model

Su            
	  4.639e-10  Surface + diffuse layer charge, eq
	 -1.000e-01  Surface charge, eq
	 -9.649e+06  sigma, C/m²
	 -1.031e+00  psi, V
	  4.014e+01  -F*psi/RT
	  2.706e+17  exp(-F*psi/RT)
	  1.000e-03  specific area, m²/g
	  1.000e-03  m² for   1.000e+00 g

	Water in diffuse layer: 7.000e-01 kg, 100.0% of total DDL-water.

	Total moles in diffuse layer (excluding water), Donnan calculation.
	Donnan Layer potential, psi_DL = -1.707e-02 V.
	Boltzmann factor, exp(-psi_DL * F / RT) = 1.943e+00 (= c_DL / c_free if z is +1).

	Element       	     Moles
	Cl            	  3.6023e-02
	H             	  2.1664e-07
	Hdo           	  5.9452e-07
	Hto           	  5.9452e-07
	I             	  3.0060e-07
	Na            	  1.3602e-01
	Nat           	  1.1139e-06
	O             	  4.5625e-08

Su            
	  1.000e-01  moles
	                                   Mole                     Log
	Species               Moles    Fraction    Molality    Molality

	Su-               1.000e-01       1.000   1.000e-01      -1.000

-----------------------------Solution composition------------------------------

	Elements           Molality       Moles

	Cl                1.000e-01   1.000e-01
	Hdo               8.493e-07   8.493e-07
	Hto               8.493e-07   8.493e-07
	I                 8.345e-07   8.345e-07
	Na                1.000e-01   1.000e-01
	Nat               8.189e-07   8.189e-07

----------------------------Description of solution----------------------------

                                       pH  =   6.983      Charge balance
                                       pe  =  12.080      Adjusted to redox equilibrium
                        Activity of water  =   0.997
                           Ionic strength  =   1.000e-01
                       Mass of water (kg)  =   1.000e+00
                 Total alkalinity (eq/kg)  =   2.180e-10
                    Total carbon (mol/kg)  =   0.000e+00
                       Total CO2 (mol/kg)  =   0.000e+00
                         Temperature (°C)  =  25.00
                  Electrical balance (eq)  =   5.526e-08
 Percent error, 100*(Cat-|An|)/(Cat+|An|)  =   0.00
                               Iterations  =   0
                                  Total H  = 1.110124e+02
                                  Total O  = 5.550622e+01

----------------------------Distribution of species----------------------------

                                               Log       Log       Log    mole V
   Species          Molality    Activity  Molality  Activity     Gamma   cm³/mol

   OH-             1.261e-07   9.603e-08    -6.899    -7.018    -0.118     (0)  
   H+              1.259e-07   1.039e-07    -6.900    -6.983    -0.083      0.00
   H2O             5.551e+01   9.966e-01     1.744    -0.001     0.000     18.07
Cl            1.000e-01
   Cl-             1.000e-01   7.642e-02    -1.000    -1.117    -0.117     (0)  
H(0)          0.000e+00
   H2              0.000e+00   0.000e+00   -41.287   -41.277     0.010     (0)  
Hdo           8.493e-07
   Hdo             8.493e-07   8.691e-07    -6.071    -6.061     0.010     (0)  
Hto           8.493e-07
   Hto             8.493e-07   8.691e-07    -6.071    -6.061     0.010     (0)  
I             8.345e-07
   I-              8.345e-07   6.519e-07    -6.079    -6.186    -0.107     (0)  
Na            1.000e-01
   Na+             1.000e-01   7.826e-02    -1.000    -1.106    -0.106     (0)  
Nat           8.189e-07
   Nat+            8.189e-07   6.398e-07    -6.087    -6.194    -0.107     (0)  
O(0)          2.892e-10
   O2              1.446e-10   1.480e-10    -9.840    -9.830     0.010     (0)  

------------------------------Saturation indices-------------------------------

  Phase               SI** log IAP   log K(298 K,   1 atm)

  H2(g)           -38.13    -41.28   -3.15  H2
  H2O(g)           -1.51     -0.00    1.51  H2O
  Halite           -3.81     -2.22    1.58  NaCl
  Hdo               6.94     -6.06  -13.00  Hdo
  Hto               6.94     -6.06  -13.00  Hto
  I                 5.71     -7.29  -13.00  NaI
  Nat               5.69     -7.31  -13.00  NatCl
  O2(g)            -6.94     -9.83   -2.89  O2

**For a gas, SI = log10(fugacity). Fugacity = pressure * phi / 1 atm.
  For ideal gases, phi = 1.

Using mix 2.	
Using surface 2.	

Mixture 2.	

	  0.000e+00 Solution 1	Solution after simulation 7.                           
	  1.000e+00 Solution 2	Solution after simulation 7.                           
	  0.000e+00 Solution 3	Solution after simulation 7.                           

------------------------------Surface composition------------------------------

Diffuse Double Layer Surface-Complexation Model

Su            
	  3.462e-10  Surface + diffuse layer charge, eq
	 -1.000e-01  Surface charge, eq
	 -9.649e+06  sigma, C/m²
	 -1.031e+00  psi, V
	  4.014e+01  -F*psi/RT
	  2.706e+17  exp(-F*psi/RT)
	  1.000e-03  specific area, m²/g
	  1.000e-03  m² for   1.000e+00 g

	Water in diffuse layer: 1.000e-01 kg, 100.0% of total DDL-water.

	Total moles in diffuse layer (excluding water), Donnan calculation.
	Donnan Layer potential, psi_DL = -5.941e-02 V.
	Boltzmann factor, exp(-psi_DL * F / RT) = 1.010e+01 (= c_DL / c_free if z is +1).

	Element       	     Moles
	Cl            	  9.9018e-04
	H             	  1.2836e-07
	Hdo           	  4.6575e-08
	Hto           	  4.6575e-08
	I             	  4.4157e-09
	Na            	  1.0099e-01
	Nat           	  4.2946e-07
	O             	  1.3482e-09

Su            
	  1.000e-01  moles
	                                   Mole                     Log
	Species               Moles    Fraction    Molality    Molality

	Su-               1.000e-01       1.000   1.000e-01      -1.000

-----------------------------Solution composition------------------------------

	Elements           Molality       Moles

	Cl                1.000e-01   1.000e-01
	Hdo               4.658e-07   4.658e-07
	Hto               4.658e-07   4.658e-07
	I                 4.459e-07   4.459e-07
	Na                1.000e-01   1.000e-01
	Nat               4.252e-07   4.252e-07

----------------------------Description of solution----------------------------

                                       pH  =   6.983      Charge balance
                                       pe  =  12.214      Adjusted to redox equilibrium
                        Activity of water  =   0.997
                           Ionic strength  =   1.000e-01
                       Mass of water (kg)  =   1.000e+00
                 Total alkalinity (eq/kg)  =   2.330e-10
                    Total carbon (mol/kg)  =   0.000e+00
                       Total CO2 (mol/kg)  =   0.000e+00
                         Temperature (°C)  =  25.00
                  Electrical balance (eq)  =   3.985e-08
 Percent error, 100*(Cat-|An|)/(Cat+|An|)  =   0.00
                               Iterations  =   0
                                  Total H  = 1.110124e+02
                                  Total O  = 5.550622e+01

----------------------------Distribution of species----------------------------

                                               Log       Log       Log    mole V
   Species          Molality    Activity  Molality  Activity     Gamma   cm³/mol

   OH-             1.261e-07   9.604e-08    -6.899    -7.018    -0.118     (0)  
   H+              1.259e-07   1.039e-07    -6.900    -6.983    -0.083      0.00
   H2O             5.551e+01   9.966e-01     1.744    -0.001     0.000     18.07
Cl            1.000e-01
   Cl-             1.000e-01   7.642e-02    -1.000    -1.117    -0.117     (0)  
H(0)          0.000e+00
   H2              0.000e+00   0.000e+00   -41.555   -41.545     0.010     (0)  
Hdo           4.658e-07
   Hdo             4.658e-07   4.766e-07    -6.332    -6.322     0.010     (0)  
Hto           4.658e-07
   Hto             4.658e-07   4.766e-07    -6.332    -6.322     0.010     (0)  
I             4.459e-07
   I-              4.459e-07   3.484e-07    -6.351    -6.458    -0.107     (0)  
Na            1.000e-01
   Na+             1.000e-01   7.826e-02    -1.000    -1.106    -0.106     (0)  
Nat           4.252e-07
   Nat+            4.252e-07   3.322e-07    -6.371    -6.479    -0.107     (0)  
O(0)          9.952e-10
   O2              4.976e-10   5.092e-10    -9.303    -9.293     0.010     (0)  

------------------------------Saturation indices-------------------------------

  Phase               SI** log IAP   log K(298 K,   1 atm)

  H2(g)           -38.39    -41.54   -3.15  H2
  H2O(g)           -1.51     -0.00    1.51  H2O
  Halite           -3.81     -2.22    1.58  NaCl
  Hdo               6.68     -6.32  -13.00  Hdo
  Hto               6.68     -6.32  -13.00  Hto
  I                 5.44     -7.56  -13.00  NaI
  Nat               5.40     -7.60  -13.00  NatCl
  O2(g)            -6.40     -9.29   -2.89  O2

**For a gas, SI = log10(fugacity). Fugacity = pressure * phi / 1 atm.
  For ideal gases, phi = 1.

Using mix 3.	
Using surface 3.	
Using pure phase assemblage 3.	Pure-phase assemblage after simulation 7.

Mixture 3.	

	  0.000e+00 Solution 2	Solution after simulation 7.                           
	  1.000e+00 Solution 3	Solution after simulation 7.                           
	  0.000e+00 Solution 4	Solution after simulation 3.                           

-------------------------------Phase assemblage--------------------------------

                                                      Moles in assemblage
Phase               SI  log IAP  log K(T, P)   Initial       Final       Delta

Hdo               0.00   -13.00    -13.00    3.242e-05   3.375e-05   1.328e-06
Hto               0.00   -13.00    -13.00    3.242e-05   3.375e-05   1.328e-06
I                 0.00   -13.00    -13.00    2.706e-05   2.823e-05   1.167e-06
Nat               0.00   -13.00    -13.00    4.672e-05   4.894e-05   2.215e-06

------------------------------Surface composition------------------------------

Diffuse Double Layer Surface-Complexation Model

Su            
	  5.334e-12  Surface + diffuse layer charge, eq
	 -1.000e-01  Surface charge, eq
	 -9.649e+06  sigma, C/m²
	 -1.031e+00  psi, V
	  4.014e+01  -F*psi/RT
	  2.706e+17  exp(-F*psi/RT)
	  1.000e-03  specific area, m²/g
	  1.000e-03  m² for   1.000e+00 g

	Water in diffuse layer: 1.000e-01 kg, 100.0% of total DDL-water.

	Total moles in diffuse layer (excluding water), Donnan calculation.
	Donnan Layer potential, psi_DL = -5.941e-02 V.
	Boltzmann factor, exp(-psi_DL * F / RT) = 1.010e+01 (= c_DL / c_free if z is +1).

	Element       	     Moles
	Cl            	  9.9017e-04
	H             	  1.2836e-07
	Hdo           	  9.7724e-15
	Hto           	  9.7724e-15
	I             	  1.6196e-14
	Na            	  1.0099e-01
	Nat           	  1.6916e-12
	O             	  1.3726e-09

Su            
	  1.000e-01  moles
	                                   Mole                     Log
	Species               Moles    Fraction    Molality    Molality

	Su-               1.000e-01       1.000   1.000e-01      -1.000

-----------------------------Solution composition------------------------------

	Elements           Molality       Moles

	Cl                1.000e-01   1.000e-01
	Hdo               9.772e-14   9.772e-14
	Hto               9.772e-14   9.772e-14
	I                 1.636e-12   1.636e-12
	Na                1.000e-01   1.000e-01
	Nat               1.675e-12   1.675e-12

----------------------------Description of solution----------------------------

                                       pH  =   6.983      Charge balance
                                       pe  =  12.238      Adjusted to redox equilibrium
                        Activity of water  =   0.997
                           Ionic strength  =   1.000e-01
                       Mass of water (kg)  =   1.000e+00
                 Total alkalinity (eq/kg)  =   2.336e-10
                    Total carbon (mol/kg)  =   0.000e+00
                       Total CO2 (mol/kg)  =   0.000e+00
                         Temperature (°C)  =  25.00
                  Electrical balance (eq)  =   2.161e-09
 Percent error, 100*(Cat-|An|)/(Cat+|An|)  =   0.00
                               Iterations  =   1
                                  Total H  = 1.110124e+02
                                  Total O  = 5.550622e+01

----------------------------Distribution of species----------------------------

                                               Log       Log       Log    mole V
   Species          Molality    Activity  Molality  Activity     Gamma   cm³/mol

   OH-             1.261e-07   9.604e-08    -6.899    -7.018    -0.118     (0)  
   H+              1.259e-07   1.039e-07    -6.900    -6.983    -0.083      0.00
   H2O             5.551e+01   9.966e-01     1.744    -0.001     0.000     18.07
Cl            1.000e-01
   Cl-             1.000e-01   7.642e-02    -1.000    -1.117    -0.117     (0)  
H(0)          0.000e+00
   H2              0.000e+00   0.000e+00   -41.603   -41.593     0.010     (0)  
Hdo           9.772e-14
   Hdo             9.772e-14   1.000e-13   -13.010   -13.000     0.010     (0)  
Hto           9.772e-14
   Hto             9.772e-14   1.000e-13   -13.010   -13.000     0.010     (0)  
I             1.636e-12
   I-              1.636e-12   1.278e-12   -11.786   -11.894    -0.107     (0)  
Na            1.000e-01
   Na+             1.000e-01   7.826e-02    -1.000    -1.106    -0.106     (0)  
Nat           1.675e-12
   Nat+            1.675e-12   1.309e-12   -11.776   -11.883    -0.107     (0)  
O(0)          1.240e-09
   O2              6.201e-10   6.346e-10    -9.208    -9.198     0.010     (0)  

------------------------------Saturation indices-------------------------------

  Phase               SI** log IAP   log K(298 K,   1 atm)

  H2(g)           -38.44    -41.59   -3.15  H2
  H2O(g)           -1.51     -0.00    1.51  H2O
  Halite           -3.81     -2.22    1.58  NaCl
  Hdo               0.00    -13.00  -13.00  Hdo
  Hto               0.00    -13.00  -13.00  Hto
  I                 0.00    -13.00  -13.00  NaI
  Nat               0.00    -13.00  -13.00  NatCl
  O2(g)            -6.31     -9.20   -2.89  O2

**For a gas, SI = log10(fugacity). Fugacity = pressure * phi / 1 atm.
  For ideal gases, phi = 1.

------------------
End of simulation.
------------------

------------------------------------
Reading input data for simulation 8.
------------------------------------

------------------------------
End of Run after 0.63 Seconds.
------------------------------

