WARNING: Database file from DATABASE keyword is used; command line argument ignored.
   Input file: HighTPwaterGas
  Output file: HighTPwaterGas.out
Database file: ../database/phreeqc.dat

------------------
Reading data base.
------------------

	SOLUTION_MASTER_SPECIES
	SOLUTION_SPECIES
	PHASES
	GAS_BINARY_PARAMETERS
	EXCHANGE_MASTER_SPECIES
	EXCHANGE_SPECIES
	SURFACE_MASTER_SPECIES
	SURFACE_SPECIES
	MEAN_GAMMAS
	RATES
	END
------------------------------------
Reading input data for simulation 1.
------------------------------------

	DATABASE ../database/phreeqc.dat
	SELECTED_OUTPUT 101
	    file                 HighTPwaterGas_101.sel
	USER_PUNCH 101
	    headings Mu SC
	    start
	10 PUNCH STR_F$(MU, 20, 12)
	20 PUNCH STR_F$(SC, 20, 10)
	    end
	SOLUTION 1
	    temp      65
	    pH        7  charge
	    pe        4
	    redox     pe
	    units     mmol/kgw
	    density   1
	    Cl        10
	    Na        10
	    water    1 # kg
	END
-------------------------------------------
Beginning of initial solution calculations.
-------------------------------------------

Initial solution 1.	

-----------------------------Solution composition------------------------------

	Elements           Molality       Moles

	Cl                1.000e-02   1.000e-02
	Na                1.000e-02   1.000e-02

----------------------------Description of solution----------------------------

                                       pH  =   6.447      Charge balance
                                       pe  =   4.000    
      Specific Conductance (µS/cm,  65°C)  = 2186
                          Density (g/cm³)  =   0.98095
                               Volume (L)  =   1.02002
                        Viscosity (mPa s)  =   0.43371
                        Activity of water  =   1.000
                 Ionic strength (mol/kgw)  =   1.000e-02
                       Mass of water (kg)  =   1.000e+00
                 Total alkalinity (eq/kg)  =  -1.032e-17
                         Temperature (°C)  =  65.00
                  Electrical balance (eq)  =   8.020e-17
 Percent error, 100*(Cat-|An|)/(Cat+|An|)  =   0.00
                               Iterations  =   4
                                  Total H  = 1.110124e+02
                                  Total O  = 5.550622e+01

----------------------------Distribution of species----------------------------

                                               Log       Log       Log    mole V
   Species          Molality    Activity  Molality  Activity     Gamma   cm³/mol

   OH-             3.944e-07   3.520e-07    -6.404    -6.453    -0.049     -3.98
   H+              3.935e-07   3.569e-07    -6.405    -6.447    -0.042      0.00
   H2O             5.551e+01   9.997e-01     1.744    -0.000     0.000     18.37
Cl            1.000e-02
   Cl-             1.000e-02   8.932e-03    -2.000    -2.049    -0.049     18.02
   HCl             8.486e-10   8.570e-10    -9.071    -9.067     0.004     (0)  
H(0)          1.267e-24
   H2              6.334e-25   6.348e-25   -24.198   -24.197     0.001     28.58
Na            1.000e-02
   Na+             1.000e-02   8.959e-03    -2.000    -2.048    -0.048     -0.08
O(0)          6.276e-33
   O2              3.138e-33   3.145e-33   -32.503   -32.502     0.001     32.59

------------------------------Saturation indices-------------------------------

  Phase               SI** log IAP   log K(338 K,   1 atm)

  H2(g)           -21.06    -24.20   -3.14  H2
  H2O(g)           -0.61     -0.00    0.61  H2O
  Halite           -5.70     -4.10    1.60  NaCl
  O2(g)           -29.42    -32.50   -3.08  O2

**For a gas, SI = log10(fugacity). Fugacity = pressure * phi / 1 atm.
  For ideal gases, phi = 1.

------------------
End of simulation.
------------------

------------------------------------
Reading input data for simulation 2.
------------------------------------

	USE SOLUTION 1
	REACTION 1
	    CO2(g)     1
	    1 moles in 100 steps
	GAS_PHASE 1
	    fixed_pressure
	    pressure 600
	    volume 1e-9
	    temperature 65
	     CO2(g) 0
	     H2O(g) 0
	USER_GRAPH 1
	-headings RXN Gas_volume pH
	-axis_titles "CO2 addition, mol" "Gas volume, L" "pH"
	10 GRAPH_X RXN
	20 GRAPH_Y GAS_VM * GAS("CO2(g)")
	30 GRAPH_SY -LA("H+")
	END 
-----------------------------------------
Beginning of batch-reaction calculations.
-----------------------------------------

Reaction step 1.

Using solution 1.	
Using gas phase 1.	
Using reaction 1.	

Reaction 1.	

	  1.000e-02 moles of the following reaction have been added:

	                 Relative
	Reactant            moles

	CO2(g)               1.00000

	                 Relative
	Element             moles
	C                    1.00000
	O                    2.00000

----------------Fixed-pressure gas phase 1 dissolved completely----------------

-----------------------------Solution composition------------------------------

	Elements           Molality       Moles

	C                 1.000e-02   1.000e-02
	Cl                1.000e-02   1.000e-02
	Na                1.000e-02   1.000e-02

----------------------------Description of solution----------------------------

                                       pH  =   4.025      Charge balance
                                       pe  =  10.837      Adjusted to redox equilibrium
      Specific Conductance (µS/cm,  65°C)  = 2275
                          Density (g/cm³)  =   1.00584
                               Volume (L)  =   0.99521
                        Viscosity (mPa s)  =   0.44969
                        Activity of water  =   0.999
                 Ionic strength (mol/kgw)  =   1.010e-02
                       Mass of water (kg)  =   1.000e+00
                 Total alkalinity (eq/kg)  =  -1.845e-17
                       Total CO2 (mol/kg)  =   1.000e-02
                         Temperature (°C)  =  65.00
                           Pressure (atm)  = 600.00
                  Electrical balance (eq)  =   7.497e-17
 Percent error, 100*(Cat-|An|)/(Cat+|An|)  =   0.00
                               Iterations  =  13
                                  Total H  = 1.110124e+02
                                  Total O  = 5.552622e+01

----------------------------Distribution of species----------------------------

                                               Log       Log       Log    mole V
   Species          Molality    Activity  Molality  Activity     Gamma   cm³/mol

   H+              1.039e-04   9.449e-05    -3.983    -4.025    -0.041      0.00
   OH-             2.452e-09   2.195e-09    -8.610    -8.659    -0.048     -5.32
   H2O             5.551e+01   9.995e-01     1.744    -0.000     0.000     17.92
C(-4)         0.000e+00
   CH4             0.000e+00   0.000e+00  -101.910  -101.909     0.001     38.40
C(4)          1.000e-02
   CO2             9.886e-03   9.901e-03    -2.005    -2.004     0.001     35.66
   HCO3-           1.024e-04   9.220e-05    -3.990    -4.035    -0.045     27.72
   (CO2)2          5.140e-06   5.152e-06    -5.289    -5.288     0.001     71.33
   NaHCO3          1.860e-06   1.869e-06    -5.730    -5.728     0.002     31.50
   CO3-2           1.923e-10   1.266e-10    -9.716    -9.898    -0.182      1.35
Cl            1.000e-02
   Cl-             1.000e-02   8.960e-03    -2.000    -2.048    -0.048     18.27
   HCl             3.343e-07   3.376e-07    -6.476    -6.472     0.004     (0)  
H(0)          1.021e-33
   H2              5.107e-34   5.119e-34   -33.292   -33.291     0.001     28.34
Na            1.000e-02
   Na+             9.998e-03   8.986e-03    -2.000    -2.046    -0.046      1.45
   NaHCO3          1.860e-06   1.869e-06    -5.730    -5.728     0.002     31.50
O(0)          3.132e-15
   O2              1.566e-15   1.570e-15   -14.805   -14.804     0.001     31.28

------------------------------Saturation indices-------------------------------

  Phase               SI** log IAP   log K(338 K, 600 atm)

  CH4(g)          -98.55   -101.91   -3.36  CH4
  CO2(g)            0.15     -2.00   -2.15  CO2
  H2(g)           -29.89    -33.29   -3.40  H2
  H2O(g)           -0.44     -0.00    0.44  H2O
  Halite           -5.76     -4.09    1.67  NaCl
  O2(g)           -11.43    -14.80   -3.37  O2

**For a gas, SI = log10(fugacity). Fugacity = pressure * phi / 1 atm.
  For ideal gases, phi = 1.

Reaction step 2.

Using solution 1.	
Using gas phase 1.	
Using reaction 1.	

Reaction 1.	

	  2.000e-02 moles of the following reaction have been added:

	                 Relative
	Reactant            moles

	CO2(g)               1.00000

	                 Relative
	Element             moles
	C                    1.00000
	O                    2.00000

----------------Fixed-pressure gas phase 1 dissolved completely----------------

-----------------------------Solution composition------------------------------

	Elements           Molality       Moles

	C                 2.000e-02   2.000e-02
	Cl                1.000e-02   1.000e-02
	Na                1.000e-02   1.000e-02

----------------------------Description of solution----------------------------

                                       pH  =   3.874      Charge balance
                                       pe  =   1.877      Adjusted to redox equilibrium
      Specific Conductance (µS/cm,  65°C)  = 2297
                          Density (g/cm³)  =   1.00593
                               Volume (L)  =   0.99556
                        Viscosity (mPa s)  =   0.44994
                        Activity of water  =   0.999
                 Ionic strength (mol/kgw)  =   1.014e-02
                       Mass of water (kg)  =   1.000e+00
                 Total alkalinity (eq/kg)  =  -1.746e-16
                       Total CO2 (mol/kg)  =   2.000e-02
                         Temperature (°C)  =  65.00
                           Pressure (atm)  = 600.00
                  Electrical balance (eq)  =   2.458e-16
 Percent error, 100*(Cat-|An|)/(Cat+|An|)  =   0.00
                               Iterations  =  14
                                  Total H  = 1.110124e+02
                                  Total O  = 5.554622e+01

----------------------------Distribution of species----------------------------

                                               Log       Log       Log    mole V
   Species          Molality    Activity  Molality  Activity     Gamma   cm³/mol

   H+              1.471e-04   1.338e-04    -3.832    -3.874    -0.041      0.00
   OH-             1.732e-09   1.551e-09    -8.761    -8.810    -0.048     -5.32
   H2O             5.551e+01   9.993e-01     1.744    -0.000     0.000     17.92
C(-4)         1.892e-29
   CH4             1.892e-29   1.896e-29   -28.723   -28.722     0.001     38.40
C(4)          2.000e-02
   CO2             1.981e-02   1.984e-02    -1.703    -1.702     0.001     35.66
   HCO3-           1.449e-04   1.305e-04    -3.839    -3.884    -0.046     27.72
   (CO2)2          2.064e-05   2.069e-05    -4.685    -4.684     0.001     71.33
   NaHCO3          2.633e-06   2.645e-06    -5.580    -5.578     0.002     31.50
   CO3-2           1.925e-10   1.266e-10    -9.716    -9.898    -0.182      1.35
Cl            1.000e-02
   Cl-             1.000e-02   8.958e-03    -2.000    -2.048    -0.048     18.27
   HCl             4.731e-07   4.778e-07    -6.325    -6.321     0.004     (0)  
H(0)          1.700e-15
   H2              8.500e-16   8.520e-16   -15.071   -15.070     0.001     28.34
Na            1.000e-02
   Na+             9.997e-03   8.983e-03    -2.000    -2.047    -0.046      1.45
   NaHCO3          2.633e-06   2.645e-06    -5.580    -5.578     0.002     31.50
O(0)          0.000e+00
   O2              0.000e+00   0.000e+00   -51.248   -51.247     0.001     31.28

------------------------------Saturation indices-------------------------------

  Phase               SI** log IAP   log K(338 K, 600 atm)

  CH4(g)          -25.36    -28.72   -3.36  CH4
  CO2(g)            0.45     -1.70   -2.15  CO2
  H2(g)           -11.67    -15.07   -3.40  H2
  H2O(g)           -0.44     -0.00    0.44  H2O
  Halite           -5.76     -4.09    1.67  NaCl
  O2(g)           -47.88    -51.25   -3.37  O2

**For a gas, SI = log10(fugacity). Fugacity = pressure * phi / 1 atm.
  For ideal gases, phi = 1.

Reaction step 3.

Using solution 1.	
Using gas phase 1.	
Using reaction 1.	

Reaction 1.	

	  3.000e-02 moles of the following reaction have been added:

	                 Relative
	Reactant            moles

	CO2(g)               1.00000

	                 Relative
	Element             moles
	C                    1.00000
	O                    2.00000

----------------Fixed-pressure gas phase 1 dissolved completely----------------

-----------------------------Solution composition------------------------------

	Elements           Molality       Moles

	C                 3.000e-02   3.000e-02
	Cl                1.000e-02   1.000e-02
	Na                1.000e-02   1.000e-02

----------------------------Description of solution----------------------------

                                       pH  =   3.786      Charge balance
                                       pe  =  11.041      Adjusted to redox equilibrium
      Specific Conductance (µS/cm,  65°C)  = 2314
                          Density (g/cm³)  =   1.00601
                               Volume (L)  =   0.99592
                        Viscosity (mPa s)  =   0.45015
                        Activity of water  =   0.999
                 Ionic strength (mol/kgw)  =   1.018e-02
                       Mass of water (kg)  =   1.000e+00
                 Total alkalinity (eq/kg)  =   5.507e-15
                       Total CO2 (mol/kg)  =   3.000e-02
                         Temperature (°C)  =  65.00
                           Pressure (atm)  = 600.00
                  Electrical balance (eq)  =  -5.280e-15
 Percent error, 100*(Cat-|An|)/(Cat+|An|)  =  -0.00
                               Iterations  =  13
                                  Total H  = 1.110124e+02
                                  Total O  = 5.556622e+01

----------------------------Distribution of species----------------------------

                                               Log       Log       Log    mole V
   Species          Molality    Activity  Molality  Activity     Gamma   cm³/mol

   H+              1.802e-04   1.638e-04    -3.744    -3.786    -0.041      0.00
   OH-             1.414e-09   1.266e-09    -8.849    -8.898    -0.048     -5.32
   H2O             5.551e+01   9.991e-01     1.744    -0.000     0.000     17.92
C(-4)         0.000e+00
   CH4             0.000e+00   0.000e+00  -101.153  -101.152     0.001     38.40
C(4)          3.000e-02
   CO2             2.973e-02   2.977e-02    -1.527    -1.526     0.001     35.66
   HCO3-           1.775e-04   1.599e-04    -3.751    -3.796    -0.046     27.72
   (CO2)2          4.648e-05   4.659e-05    -4.333    -4.332     0.001     71.33
   NaHCO3          3.224e-06   3.239e-06    -5.492    -5.490     0.002     31.50
   CO3-2           1.926e-10   1.266e-10    -9.715    -9.898    -0.182      1.35
Cl            1.000e-02
   Cl-             9.999e-03   8.957e-03    -2.000    -2.048    -0.048     18.27
   HCl             5.793e-07   5.851e-07    -6.237    -6.233     0.004     (0)  
H(0)          1.199e-33
   H2              5.995e-34   6.009e-34   -33.222   -33.221     0.001     28.34
Na            1.000e-02
   Na+             9.997e-03   8.981e-03    -2.000    -2.047    -0.047      1.45
   NaHCO3          3.224e-06   3.239e-06    -5.492    -5.490     0.002     31.50
O(0)          2.271e-15
   O2              1.135e-15   1.138e-15   -14.945   -14.944     0.001     31.28

------------------------------Saturation indices-------------------------------

  Phase               SI** log IAP   log K(338 K, 600 atm)

  CH4(g)          -97.79   -101.15   -3.36  CH4
  CO2(g)            0.62     -1.53   -2.15  CO2
  H2(g)           -29.82    -33.22   -3.40  H2
  H2O(g)           -0.44     -0.00    0.44  H2O
  Halite           -5.76     -4.09    1.67  NaCl
  O2(g)           -11.57    -14.94   -3.37  O2

**For a gas, SI = log10(fugacity). Fugacity = pressure * phi / 1 atm.
  For ideal gases, phi = 1.

Reaction step 4.

Using solution 1.	
Using gas phase 1.	
Using reaction 1.	

Reaction 1.	

	  4.000e-02 moles of the following reaction have been added:

	                 Relative
	Reactant            moles

	CO2(g)               1.00000

	                 Relative
	Element             moles
	C                    1.00000
	O                    2.00000

----------------Fixed-pressure gas phase 1 dissolved completely----------------

-----------------------------Solution composition------------------------------

	Elements           Molality       Moles

	C                 4.000e-02   4.000e-02
	Cl                1.000e-02   1.000e-02
	Na                1.000e-02   1.000e-02

----------------------------Description of solution----------------------------

                                       pH  =   3.723      Charge balance
                                       pe  =   1.878      Adjusted to redox equilibrium
      Specific Conductance (µS/cm,  65°C)  = 2327
                          Density (g/cm³)  =   1.00609
                               Volume (L)  =   0.99628
                        Viscosity (mPa s)  =   0.45034
                        Activity of water  =   0.999
                 Ionic strength (mol/kgw)  =   1.020e-02
                       Mass of water (kg)  =   1.000e+00
                 Total alkalinity (eq/kg)  =   1.057e-13
                       Total CO2 (mol/kg)  =   4.000e-02
                         Temperature (°C)  =  65.00
                           Pressure (atm)  = 600.00
                  Electrical balance (eq)  =  -1.027e-13
 Percent error, 100*(Cat-|An|)/(Cat+|An|)  =  -0.00
                               Iterations  =  13
                                  Total H  = 1.110124e+02
                                  Total O  = 5.558622e+01

----------------------------Distribution of species----------------------------

                                               Log       Log       Log    mole V
   Species          Molality    Activity  Molality  Activity     Gamma   cm³/mol

   H+              2.080e-04   1.891e-04    -3.682    -3.723    -0.041      0.00
   OH-             1.225e-09   1.096e-09    -8.912    -8.960    -0.048     -5.32
   H2O             5.551e+01   9.990e-01     1.744    -0.000     0.000     17.92
C(-4)         5.959e-28
   CH4             5.959e-28   5.973e-28   -27.225   -27.224     0.001     38.40
C(4)          4.000e-02
   CO2             3.963e-02   3.969e-02    -1.402    -1.401     0.001     35.66
   HCO3-           2.050e-04   1.845e-04    -3.688    -3.734    -0.046     27.72
   (CO2)2          8.259e-05   8.279e-05    -4.083    -4.082     0.001     71.33
   NaHCO3          3.721e-06   3.739e-06    -5.429    -5.427     0.002     31.50
   CO3-2           1.927e-10   1.266e-10    -9.715    -9.898    -0.182      1.35
Cl            1.000e-02
   Cl-             9.999e-03   8.956e-03    -2.000    -2.048    -0.048     18.27
   HCl             6.687e-07   6.754e-07    -6.175    -6.170     0.004     (0)  
H(0)          3.386e-15
   H2              1.693e-15   1.697e-15   -14.771   -14.770     0.001     28.34
Na            1.000e-02
   Na+             9.996e-03   8.980e-03    -2.000    -2.047    -0.047      1.45
   NaHCO3          3.721e-06   3.739e-06    -5.429    -5.427     0.002     31.50
O(0)          0.000e+00
   O2              0.000e+00   0.000e+00   -51.847   -51.846     0.001     31.28

------------------------------Saturation indices-------------------------------

  Phase               SI** log IAP   log K(338 K, 600 atm)

  CH4(g)          -23.86    -27.22   -3.36  CH4
  CO2(g)            0.75     -1.40   -2.15  CO2
  H2(g)           -11.37    -14.77   -3.40  H2
  H2O(g)           -0.44     -0.00    0.44  H2O
  Halite           -5.76     -4.09    1.67  NaCl
  O2(g)           -48.47    -51.85   -3.37  O2

**For a gas, SI = log10(fugacity). Fugacity = pressure * phi / 1 atm.
  For ideal gases, phi = 1.

Reaction step 5.

Using solution 1.	
Using gas phase 1.	
Using reaction 1.	

Reaction 1.	

	  5.000e-02 moles of the following reaction have been added:

	                 Relative
	Reactant            moles

	CO2(g)               1.00000

	                 Relative
	Element             moles
	C                    1.00000
	O                    2.00000

----------------Fixed-pressure gas phase 1 dissolved completely----------------

-----------------------------Solution composition------------------------------

	Elements           Molality       Moles

	C                 5.000e-02   5.000e-02
	Cl                1.000e-02   1.000e-02
	Na                1.000e-02   1.000e-02

----------------------------Description of solution----------------------------

                                       pH  =   3.675      Charge balance
                                       pe  =  11.099      Adjusted to redox equilibrium
      Specific Conductance (µS/cm,  65°C)  = 2339
                          Density (g/cm³)  =   1.00617
                               Volume (L)  =   0.99663
                        Viscosity (mPa s)  =   0.45052
                        Activity of water  =   0.999
                 Ionic strength (mol/kgw)  =   1.023e-02
                       Mass of water (kg)  =   1.000e+00
                 Total alkalinity (eq/kg)  =   4.965e-13
                       Total CO2 (mol/kg)  =   5.000e-02
                         Temperature (°C)  =  65.00
                           Pressure (atm)  = 600.00
                  Electrical balance (eq)  =  -4.827e-13
 Percent error, 100*(Cat-|An|)/(Cat+|An|)  =  -0.00
                               Iterations  =  13
                                  Total H  = 1.110124e+02
                                  Total O  = 5.560622e+01

----------------------------Distribution of species----------------------------

                                               Log       Log       Log    mole V
   Species          Molality    Activity  Molality  Activity     Gamma   cm³/mol

   H+              2.325e-04   2.114e-04    -3.633    -3.675    -0.041      0.00
   OH-             1.096e-09   9.806e-10    -8.960    -9.009    -0.048     -5.32
   H2O             5.551e+01   9.988e-01     1.744    -0.001     0.000     17.92
C(-4)         0.000e+00
   CH4             0.000e+00   0.000e+00  -100.514  -100.513     0.001     38.40
C(4)          5.000e-02
   CO2             4.951e-02   4.959e-02    -1.305    -1.305     0.001     35.66
   HCO3-           2.291e-04   2.063e-04    -3.640    -3.686    -0.046     27.72
   (CO2)2          1.289e-04   1.292e-04    -3.890    -3.889     0.001     71.33
   NaHCO3          4.158e-06   4.178e-06    -5.381    -5.379     0.002     31.50
   CO3-2           1.927e-10   1.266e-10    -9.715    -9.898    -0.183      1.35
Cl            1.000e-02
   Cl-             9.999e-03   8.955e-03    -2.000    -2.048    -0.048     18.27
   HCl             7.473e-07   7.548e-07    -6.127    -6.122     0.004     (0)  
H(0)          1.525e-33
   H2              7.626e-34   7.644e-34   -33.118   -33.117     0.001     28.34
Na            1.000e-02
   Na+             9.996e-03   8.978e-03    -2.000    -2.047    -0.047      1.45
   NaHCO3          4.158e-06   4.178e-06    -5.381    -5.379     0.002     31.50
O(0)          1.403e-15
   O2              7.013e-16   7.030e-16   -15.154   -15.153     0.001     31.28

------------------------------Saturation indices-------------------------------

  Phase               SI** log IAP   log K(338 K, 600 atm)

  CH4(g)          -97.15   -100.51   -3.36  CH4
  CO2(g)            0.85     -1.30   -2.15  CO2
  H2(g)           -29.71    -33.12   -3.40  H2
  H2O(g)           -0.44     -0.00    0.44  H2O
  Halite           -5.76     -4.09    1.67  NaCl
  O2(g)           -11.78    -15.15   -3.37  O2

**For a gas, SI = log10(fugacity). Fugacity = pressure * phi / 1 atm.
  For ideal gases, phi = 1.

Reaction step 6.

Using solution 1.	
Using gas phase 1.	
Using reaction 1.	

Reaction 1.	

	  6.000e-02 moles of the following reaction have been added:

	                 Relative
	Reactant            moles

	CO2(g)               1.00000

	                 Relative
	Element             moles
	C                    1.00000
	O                    2.00000

----------------Fixed-pressure gas phase 1 dissolved completely----------------

-----------------------------Solution composition------------------------------

	Elements           Molality       Moles

	C                 6.000e-02   6.000e-02
	Cl                1.000e-02   1.000e-02
	Na                1.000e-02   1.000e-02

----------------------------Description of solution----------------------------

                                       pH  =   3.635      Charge balance
                                       pe  =   1.876      Adjusted to redox equilibrium
      Specific Conductance (µS/cm,  65°C)  = 2349
                          Density (g/cm³)  =   1.00626
                               Volume (L)  =   0.99699
                        Viscosity (mPa s)  =   0.45070
                        Activity of water  =   0.999
                 Ionic strength (mol/kgw)  =   1.025e-02
                       Mass of water (kg)  =   1.000e+00
                 Total alkalinity (eq/kg)  =  -3.596e-15
                       Total CO2 (mol/kg)  =   6.000e-02
                         Temperature (°C)  =  65.00
                           Pressure (atm)  = 600.00
                  Electrical balance (eq)  =   3.561e-15
 Percent error, 100*(Cat-|An|)/(Cat+|An|)  =   0.00
                               Iterations  =  14
                                  Total H  = 1.110124e+02
                                  Total O  = 5.562622e+01

----------------------------Distribution of species----------------------------

                                               Log       Log       Log    mole V
   Species          Molality    Activity  Molality  Activity     Gamma   cm³/mol

   H+              2.547e-04   2.315e-04    -3.594    -3.635    -0.041      0.00
   OH-             1.001e-09   8.953e-10    -9.000    -9.048    -0.048     -5.32
   H2O             5.551e+01   9.986e-01     1.744    -0.001     0.000     17.92
C(-4)         4.642e-27
   CH4             4.642e-27   4.653e-27   -26.333   -26.332     0.001     38.40
C(4)          6.000e-02
   CO2             5.937e-02   5.947e-02    -1.226    -1.226     0.001     35.66
   HCO3-           2.509e-04   2.259e-04    -3.600    -3.646    -0.046     27.72
   (CO2)2          1.854e-04   1.859e-04    -3.732    -3.731     0.001     71.33
   NaHCO3          4.553e-06   4.574e-06    -5.342    -5.340     0.002     31.50
   CO3-2           1.928e-10   1.266e-10    -9.715    -9.898    -0.183      1.36
Cl            1.000e-02
   Cl-             9.999e-03   8.954e-03    -2.000    -2.048    -0.048     18.27
   HCl             8.182e-07   8.264e-07    -6.087    -6.083     0.004     (0)  
H(0)          5.112e-15
   H2              2.556e-15   2.562e-15   -14.592   -14.591     0.001     28.34
Na            1.000e-02
   Na+             9.995e-03   8.977e-03    -2.000    -2.047    -0.047      1.45
   NaHCO3          4.553e-06   4.574e-06    -5.342    -5.340     0.002     31.50
O(0)          0.000e+00
   O2              0.000e+00   0.000e+00   -52.205   -52.204     0.001     31.28

------------------------------Saturation indices-------------------------------

  Phase               SI** log IAP   log K(338 K, 600 atm)

  CH4(g)          -22.97    -26.33   -3.36  CH4
  CO2(g)            0.92     -1.23   -2.15  CO2
  H2(g)           -11.19    -14.59   -3.40  H2
  H2O(g)           -0.44     -0.00    0.44  H2O
  Halite           -5.76     -4.09    1.67  NaCl
  O2(g)           -48.83    -52.20   -3.37  O2

**For a gas, SI = log10(fugacity). Fugacity = pressure * phi / 1 atm.
  For ideal gases, phi = 1.

Reaction step 7.

Using solution 1.	
Using gas phase 1.	
Using reaction 1.	

Reaction 1.	

	  7.000e-02 moles of the following reaction have been added:

	                 Relative
	Reactant            moles

	CO2(g)               1.00000

	                 Relative
	Element             moles
	C                    1.00000
	O                    2.00000

----------------Fixed-pressure gas phase 1 dissolved completely----------------

-----------------------------Solution composition------------------------------

	Elements           Molality       Moles

	C                 7.000e-02   7.000e-02
	Cl                1.000e-02   1.000e-02
	Na                1.000e-02   1.000e-02

----------------------------Description of solution----------------------------

                                       pH  =   3.602      Charge balance
                                       pe  =  11.076      Adjusted to redox equilibrium
      Specific Conductance (µS/cm,  65°C)  = 2358
                          Density (g/cm³)  =   1.00634
                               Volume (L)  =   0.99734
                        Viscosity (mPa s)  =   0.45087
                        Activity of water  =   0.998
                 Ionic strength (mol/kgw)  =   1.027e-02
                       Mass of water (kg)  =   1.000e+00
                 Total alkalinity (eq/kg)  =  -4.789e-16
                       Total CO2 (mol/kg)  =   7.000e-02
                         Temperature (°C)  =  65.00
                           Pressure (atm)  = 600.00
                  Electrical balance (eq)  =   5.454e-16
 Percent error, 100*(Cat-|An|)/(Cat+|An|)  =   0.00
                               Iterations  =  14
                                  Total H  = 1.110124e+02
                                  Total O  = 5.564622e+01

----------------------------Distribution of species----------------------------

                                               Log       Log       Log    mole V
   Species          Molality    Activity  Molality  Activity     Gamma   cm³/mol

   H+              2.750e-04   2.499e-04    -3.561    -3.602    -0.041      0.00
   OH-             9.268e-10   8.291e-10    -9.033    -9.081    -0.048     -5.32
   H2O             5.551e+01   9.985e-01     1.744    -0.001     0.000     17.92
C(-4)         0.000e+00
   CH4             0.000e+00   0.000e+00   -99.601   -99.600     0.001     38.40
C(4)          7.000e-02
   CO2             6.922e-02   6.933e-02    -1.160    -1.159     0.001     35.66
   HCO3-           2.709e-04   2.438e-04    -3.567    -3.613    -0.046     27.72
   (CO2)2          2.520e-04   2.526e-04    -3.599    -3.598     0.001     71.33
   NaHCO3          4.915e-06   4.938e-06    -5.309    -5.306     0.002     31.50
   CO3-2           1.929e-10   1.266e-10    -9.715    -9.898    -0.183      1.36
Cl            1.000e-02
   Cl-             9.999e-03   8.953e-03    -2.000    -2.048    -0.048     18.27
   HCl             8.832e-07   8.922e-07    -6.054    -6.050     0.004     (0)  
H(0)          2.371e-33
   H2              1.185e-33   1.188e-33   -32.926   -32.925     0.001     28.34
Na            1.000e-02
   Na+             9.995e-03   8.976e-03    -2.000    -2.047    -0.047      1.45
   NaHCO3          4.915e-06   4.938e-06    -5.309    -5.306     0.002     31.50
O(0)          5.801e-16
   O2              2.901e-16   2.907e-16   -15.538   -15.536     0.001     31.28

------------------------------Saturation indices-------------------------------

  Phase               SI** log IAP   log K(338 K, 600 atm)

  CH4(g)          -96.24    -99.60   -3.36  CH4
  CO2(g)            0.99     -1.16   -2.15  CO2
  H2(g)           -29.52    -32.93   -3.40  H2
  H2O(g)           -0.44     -0.00    0.44  H2O
  Halite           -5.76     -4.09    1.67  NaCl
  O2(g)           -12.17    -15.54   -3.37  O2

**For a gas, SI = log10(fugacity). Fugacity = pressure * phi / 1 atm.
  For ideal gases, phi = 1.

Reaction step 8.

Using solution 1.	
Using gas phase 1.	
Using reaction 1.	

Reaction 1.	

	  8.000e-02 moles of the following reaction have been added:

	                 Relative
	Reactant            moles

	CO2(g)               1.00000

	                 Relative
	Element             moles
	C                    1.00000
	O                    2.00000

----------------Fixed-pressure gas phase 1 dissolved completely----------------

-----------------------------Solution composition------------------------------

	Elements           Molality       Moles

	C                 8.000e-02   8.000e-02
	Cl                1.000e-02   1.000e-02
	Na                1.000e-02   1.000e-02

----------------------------Description of solution----------------------------

                                       pH  =   3.573      Charge balance
                                       pe  =   1.878      Adjusted to redox equilibrium
      Specific Conductance (µS/cm,  65°C)  = 2367
                          Density (g/cm³)  =   1.00642
                               Volume (L)  =   0.99770
                        Viscosity (mPa s)  =   0.45104
                        Activity of water  =   0.998
                 Ionic strength (mol/kgw)  =   1.029e-02
                       Mass of water (kg)  =   1.000e+00
                 Total alkalinity (eq/kg)  =  -1.524e-16
                       Total CO2 (mol/kg)  =   8.000e-02
                         Temperature (°C)  =  65.00
                           Pressure (atm)  = 600.00
                  Electrical balance (eq)  =   2.155e-16
 Percent error, 100*(Cat-|An|)/(Cat+|An|)  =   0.00
                               Iterations  =  15
                                  Total H  = 1.110124e+02
                                  Total O  = 5.566622e+01

----------------------------Distribution of species----------------------------

                                               Log       Log       Log    mole V
   Species          Molality    Activity  Molality  Activity     Gamma   cm³/mol

   H+              2.938e-04   2.671e-04    -3.532    -3.573    -0.041      0.00
   OH-             8.673e-10   7.758e-10    -9.062    -9.110    -0.048     -5.32
   H2O             5.551e+01   9.983e-01     1.744    -0.001     0.000     17.92
C(-4)         1.858e-26
   CH4             1.858e-26   1.862e-26   -25.731   -25.730     0.001     38.40
C(4)          8.000e-02
   CO2             7.905e-02   7.917e-02    -1.102    -1.101     0.001     35.66
   (CO2)2          3.287e-04   3.294e-04    -3.483    -3.482     0.001     71.33
   HCO3-           2.895e-04   2.606e-04    -3.538    -3.584    -0.046     27.72
   NaHCO3          5.251e-06   5.276e-06    -5.280    -5.278     0.002     31.50
   CO3-2           1.929e-10   1.266e-10    -9.715    -9.898    -0.183      1.36
Cl            1.000e-02
   Cl-             9.999e-03   8.952e-03    -2.000    -2.048    -0.048     18.27
   HCl             9.437e-07   9.532e-07    -6.025    -6.021     0.004     (0)  
H(0)          6.730e-15
   H2              3.365e-15   3.373e-15   -14.473   -14.472     0.001     28.34
Na            1.000e-02
   Na+             9.995e-03   8.975e-03    -2.000    -2.047    -0.047      1.45
   NaHCO3          5.251e-06   5.276e-06    -5.280    -5.278     0.002     31.50
O(0)          0.000e+00
   O2              0.000e+00   0.000e+00   -52.444   -52.443     0.001     31.28

------------------------------Saturation indices-------------------------------

  Phase               SI** log IAP   log K(338 K, 600 atm)

  CH4(g)          -22.37    -25.73   -3.36  CH4
  CO2(g)            1.05     -1.10   -2.15  CO2
  H2(g)           -11.07    -14.47   -3.40  H2
  H2O(g)           -0.44     -0.00    0.44  H2O
  Halite           -5.76     -4.10    1.67  NaCl
  O2(g)           -49.07    -52.44   -3.37  O2

**For a gas, SI = log10(fugacity). Fugacity = pressure * phi / 1 atm.
  For ideal gases, phi = 1.

Reaction step 9.

Using solution 1.	
Using gas phase 1.	
Using reaction 1.	

Reaction 1.	

	  9.000e-02 moles of the following reaction have been added:

	                 Relative
	Reactant            moles

	CO2(g)               1.00000

	                 Relative
	Element             moles
	C                    1.00000
	O                    2.00000

----------------Fixed-pressure gas phase 1 dissolved completely----------------

-----------------------------Solution composition------------------------------

	Elements           Molality       Moles

	C                 9.000e-02   9.000e-02
	Cl                1.000e-02   1.000e-02
	Na                1.000e-02   1.000e-02

----------------------------Description of solution----------------------------

                                       pH  =   3.548      Charge balance
                                       pe  =   2.487      Adjusted to redox equilibrium
      Specific Conductance (µS/cm,  65°C)  = 2374
                          Density (g/cm³)  =   1.00650
                               Volume (L)  =   0.99806
                        Viscosity (mPa s)  =   0.45120
                        Activity of water  =   0.998
                 Ionic strength (mol/kgw)  =   1.031e-02
                       Mass of water (kg)  =   1.000e+00
                 Total alkalinity (eq/kg)  =  -5.998e-16
                       Total CO2 (mol/kg)  =   9.000e-02
                         Temperature (°C)  =  65.00
                           Pressure (atm)  = 600.00
                  Electrical balance (eq)  =   6.574e-16
 Percent error, 100*(Cat-|An|)/(Cat+|An|)  =   0.00
                               Iterations  =  14
                                  Total H  = 1.110124e+02
                                  Total O  = 5.568622e+01

----------------------------Distribution of species----------------------------

                                               Log       Log       Log    mole V
   Species          Molality    Activity  Molality  Activity     Gamma   cm³/mol

   H+              3.115e-04   2.831e-04    -3.507    -3.548    -0.042      0.00
   OH-             8.180e-10   7.317e-10    -9.087    -9.136    -0.048     -5.32
   H2O             5.551e+01   9.981e-01     1.744    -0.001     0.000     17.92
C(-4)         4.495e-31
   CH4             4.495e-31   4.505e-31   -30.347   -30.346     0.001     38.40
C(4)          9.000e-02
   CO2             8.886e-02   8.900e-02    -1.051    -1.051     0.001     35.66
   (CO2)2          4.153e-04   4.163e-04    -3.382    -3.381     0.001     71.33
   HCO3-           3.070e-04   2.762e-04    -3.513    -3.559    -0.046     27.72
   NaHCO3          5.566e-06   5.592e-06    -5.254    -5.252     0.002     31.50
   CO3-2           1.930e-10   1.266e-10    -9.714    -9.898    -0.183      1.36
Cl            1.000e-02
   Cl-             9.999e-03   8.951e-03    -2.000    -2.048    -0.048     18.27
   HCl             1.000e-06   1.010e-06    -6.000    -5.995     0.004     (0)  
H(0)          4.584e-16
   H2              2.292e-16   2.297e-16   -15.640   -15.639     0.001     28.34
Na            1.000e-02
   Na+             9.994e-03   8.974e-03    -2.000    -2.047    -0.047      1.45
   NaHCO3          5.566e-06   5.592e-06    -5.254    -5.252     0.002     31.50
O(0)          0.000e+00
   O2              0.000e+00   0.000e+00   -50.111   -50.109     0.001     31.28

------------------------------Saturation indices-------------------------------

  Phase               SI** log IAP   log K(338 K, 600 atm)

  CH4(g)          -26.99    -30.35   -3.36  CH4
  CO2(g)            1.10     -1.05   -2.15  CO2
  H2(g)           -12.23    -15.64   -3.40  H2
  H2O(g)           -0.44     -0.00    0.44  H2O
  Halite           -5.76     -4.10    1.67  NaCl
  O2(g)           -46.74    -50.11   -3.37  O2

**For a gas, SI = log10(fugacity). Fugacity = pressure * phi / 1 atm.
  For ideal gases, phi = 1.

Reaction step 10.

Using solution 1.	
Using gas phase 1.	
Using reaction 1.	

Reaction 1.	

	  1.000e-01 moles of the following reaction have been added:

	                 Relative
	Reactant            moles

	CO2(g)               1.00000

	                 Relative
	Element             moles
	C                    1.00000
	O                    2.00000

----------------Fixed-pressure gas phase 1 dissolved completely----------------

-----------------------------Solution composition------------------------------

	Elements           Molality       Moles

	C                 1.000e-01   1.000e-01
	Cl                1.000e-02   1.000e-02
	Na                1.000e-02   1.000e-02

----------------------------Description of solution----------------------------

                                       pH  =   3.525      Charge balance
                                       pe  =  11.325      Adjusted to redox equilibrium
      Specific Conductance (µS/cm,  65°C)  = 2382
                          Density (g/cm³)  =   1.00658
                               Volume (L)  =   0.99841
                        Viscosity (mPa s)  =   0.45136
                        Activity of water  =   0.998
                 Ionic strength (mol/kgw)  =   1.032e-02
                       Mass of water (kg)  =   1.000e+00
                 Total alkalinity (eq/kg)  =  -1.325e-15
                       Total CO2 (mol/kg)  =   1.000e-01
                         Temperature (°C)  =  65.00
                           Pressure (atm)  = 600.00
                  Electrical balance (eq)  =   1.342e-15
 Percent error, 100*(Cat-|An|)/(Cat+|An|)  =   0.00
                               Iterations  =  14
                                  Total H  = 1.110124e+02
                                  Total O  = 5.570622e+01

----------------------------Distribution of species----------------------------

                                               Log       Log       Log    mole V
   Species          Molality    Activity  Molality  Activity     Gamma   cm³/mol

   H+              3.282e-04   2.983e-04    -3.484    -3.525    -0.042      0.00
   OH-             7.764e-10   6.943e-10    -9.110    -9.158    -0.048     -5.32
   H2O             5.551e+01   9.980e-01     1.744    -0.001     0.000     17.92
C(-4)         0.000e+00
   CH4             0.000e+00   0.000e+00  -100.820  -100.819     0.001     38.40
C(4)          1.000e-01
   CO2             9.865e-02   9.880e-02    -1.006    -1.005     0.001     35.66
   (CO2)2          5.118e-04   5.131e-04    -3.291    -3.290     0.001     71.33
   HCO3-           3.234e-04   2.910e-04    -3.490    -3.536    -0.046     27.72
   NaHCO3          5.863e-06   5.891e-06    -5.232    -5.230     0.002     31.50
   CO3-2           1.930e-10   1.265e-10    -9.714    -9.898    -0.183      1.36
Cl            1.000e-02
   Cl-             9.999e-03   8.950e-03    -2.000    -2.048    -0.048     18.27
   HCl             1.054e-06   1.065e-06    -5.977    -5.973     0.004     (0)  
H(0)          1.075e-33
   H2              5.377e-34   5.389e-34   -33.269   -33.268     0.001     28.34
Na            1.000e-02
   Na+             9.994e-03   8.973e-03    -2.000    -2.047    -0.047      1.45
   NaHCO3          5.863e-06   5.891e-06    -5.232    -5.230     0.002     31.50
O(0)          2.817e-15
   O2              1.408e-15   1.412e-15   -14.851   -14.850     0.001     31.28

------------------------------Saturation indices-------------------------------

  Phase               SI** log IAP   log K(338 K, 600 atm)

  CH4(g)          -97.46   -100.82   -3.36  CH4
  CO2(g)            1.15     -1.01   -2.15  CO2
  H2(g)           -29.86    -33.27   -3.40  H2
  H2O(g)           -0.44     -0.00    0.44  H2O
  Halite           -5.76     -4.10    1.67  NaCl
  O2(g)           -11.48    -14.85   -3.37  O2

**For a gas, SI = log10(fugacity). Fugacity = pressure * phi / 1 atm.
  For ideal gases, phi = 1.

Reaction step 11.

Using solution 1.	
Using gas phase 1.	
Using reaction 1.	

Reaction 1.	

	  1.100e-01 moles of the following reaction have been added:

	                 Relative
	Reactant            moles

	CO2(g)               1.00000

	                 Relative
	Element             moles
	C                    1.00000
	O                    2.00000

----------------Fixed-pressure gas phase 1 dissolved completely----------------

-----------------------------Solution composition------------------------------

	Elements           Molality       Moles

	C                 1.100e-01   1.100e-01
	Cl                1.000e-02   1.000e-02
	Na                1.000e-02   1.000e-02

----------------------------Description of solution----------------------------

                                       pH  =   3.505      Charge balance
                                       pe  =   2.180      Adjusted to redox equilibrium
      Specific Conductance (µS/cm,  65°C)  = 2388
                          Density (g/cm³)  =   1.00667
                               Volume (L)  =   0.99877
                        Viscosity (mPa s)  =   0.45152
                        Activity of water  =   0.998
                 Ionic strength (mol/kgw)  =   1.034e-02
                       Mass of water (kg)  =   1.000e+00
                 Total alkalinity (eq/kg)  =  -2.832e-15
                       Total CO2 (mol/kg)  =   1.100e-01
                         Temperature (°C)  =  65.00
                           Pressure (atm)  = 600.00
                  Electrical balance (eq)  =   2.812e-15
 Percent error, 100*(Cat-|An|)/(Cat+|An|)  =   0.00
                               Iterations  =  14
                                  Total H  = 1.110124e+02
                                  Total O  = 5.572622e+01

----------------------------Distribution of species----------------------------

                                               Log       Log       Log    mole V
   Species          Molality    Activity  Molality  Activity     Gamma   cm³/mol

   H+              3.441e-04   3.127e-04    -3.463    -3.505    -0.042      0.00
   OH-             7.405e-10   6.623e-10    -9.130    -9.179    -0.049     -5.32
   H2O             5.551e+01   9.978e-01     1.744    -0.001     0.000     17.92
C(-4)         3.487e-28
   CH4             3.487e-28   3.495e-28   -27.458   -27.457     0.001     38.40
C(4)          1.100e-01
   CO2             1.084e-01   1.086e-01    -0.965    -0.964     0.001     35.66
   (CO2)2          6.183e-04   6.197e-04    -3.209    -3.208     0.001     71.33
   HCO3-           3.391e-04   3.051e-04    -3.470    -3.516    -0.046     27.72
   NaHCO3          6.146e-06   6.175e-06    -5.211    -5.209     0.002     31.50
   CO3-2           1.931e-10   1.265e-10    -9.714    -9.898    -0.183      1.36
Cl            1.000e-02
   Cl-             9.999e-03   8.950e-03    -2.000    -2.048    -0.048     18.27
   HCl             1.105e-06   1.116e-06    -5.957    -5.952     0.004     (0)  
H(0)          2.301e-15
   H2              1.151e-15   1.153e-15   -14.939   -14.938     0.001     28.34
Na            1.000e-02
   Na+             9.994e-03   8.972e-03    -2.000    -2.047    -0.047      1.45
   NaHCO3          6.146e-06   6.175e-06    -5.211    -5.209     0.002     31.50
O(0)          0.000e+00
   O2              0.000e+00   0.000e+00   -51.512   -51.511     0.001     31.28

------------------------------Saturation indices-------------------------------

  Phase               SI** log IAP   log K(338 K, 600 atm)

  CH4(g)          -24.10    -27.46   -3.36  CH4
  CO2(g)            1.19     -0.96   -2.15  CO2
  H2(g)           -11.53    -14.94   -3.40  H2
  H2O(g)           -0.44     -0.00    0.44  H2O
  Halite           -5.76     -4.10    1.67  NaCl
  O2(g)           -48.14    -51.51   -3.37  O2

**For a gas, SI = log10(fugacity). Fugacity = pressure * phi / 1 atm.
  For ideal gases, phi = 1.

Reaction step 12.

Using solution 1.	
Using gas phase 1.	
Using reaction 1.	

Reaction 1.	

	  1.200e-01 moles of the following reaction have been added:

	                 Relative
	Reactant            moles

	CO2(g)               1.00000

	                 Relative
	Element             moles
	C                    1.00000
	O                    2.00000

----------------Fixed-pressure gas phase 1 dissolved completely----------------

-----------------------------Solution composition------------------------------

	Elements           Molality       Moles

	C                 1.200e-01   1.200e-01
	Cl                1.000e-02   1.000e-02
	Na                1.000e-02   1.000e-02

----------------------------Description of solution----------------------------

                                       pH  =   3.486      Charge balance
                                       pe  =  11.326      Adjusted to redox equilibrium
      Specific Conductance (µS/cm,  65°C)  = 2395
                          Density (g/cm³)  =   1.00675
                               Volume (L)  =   0.99912
                        Viscosity (mPa s)  =   0.45168
                        Activity of water  =   0.998
                 Ionic strength (mol/kgw)  =   1.035e-02
                       Mass of water (kg)  =   1.000e+00
                 Total alkalinity (eq/kg)  =  -4.143e-15
                       Total CO2 (mol/kg)  =   1.200e-01
                         Temperature (°C)  =  65.00
                           Pressure (atm)  = 600.00
                  Electrical balance (eq)  =   4.098e-15
 Percent error, 100*(Cat-|An|)/(Cat+|An|)  =   0.00
                               Iterations  =  14
                                  Total H  = 1.110124e+02
                                  Total O  = 5.574622e+01

----------------------------Distribution of species----------------------------

                                               Log       Log       Log    mole V
   Species          Molality    Activity  Molality  Activity     Gamma   cm³/mol

   H+              3.592e-04   3.264e-04    -3.445    -3.486    -0.042      0.00
   OH-             7.093e-10   6.343e-10    -9.149    -9.198    -0.049     -5.32
   H2O             5.551e+01   9.976e-01     1.744    -0.001     0.000     17.92
C(-4)         0.000e+00
   CH4             0.000e+00   0.000e+00  -100.441  -100.440     0.001     38.40
C(4)          1.200e-01
   CO2             1.182e-01   1.184e-01    -0.927    -0.927     0.001     35.66
   (CO2)2          7.345e-04   7.363e-04    -3.134    -3.133     0.001     71.33
   HCO3-           3.540e-04   3.185e-04    -3.451    -3.497    -0.046     27.72
   NaHCO3          6.415e-06   6.446e-06    -5.193    -5.191     0.002     31.50
   CO3-2           1.931e-10   1.265e-10    -9.714    -9.898    -0.184      1.36
Cl            1.000e-02
   Cl-             9.999e-03   8.949e-03    -2.000    -2.048    -0.048     18.27
   HCl             1.153e-06   1.165e-06    -5.938    -5.934     0.004     (0)  
H(0)          1.278e-33
   H2              6.392e-34   6.408e-34   -33.194   -33.193     0.001     28.34
Na            1.000e-02
   Na+             9.994e-03   8.971e-03    -2.000    -2.047    -0.047      1.45
   NaHCO3          6.415e-06   6.446e-06    -5.193    -5.191     0.002     31.50
O(0)          1.991e-15
   O2              9.956e-16   9.980e-16   -15.002   -15.001     0.001     31.28

------------------------------Saturation indices-------------------------------

  Phase               SI** log IAP   log K(338 K, 600 atm)

  CH4(g)          -97.08   -100.44   -3.36  CH4
  CO2(g)            1.22     -0.93   -2.15  CO2
  H2(g)           -29.79    -33.19   -3.40  H2
  H2O(g)           -0.44     -0.00    0.44  H2O
  Halite           -5.76     -4.10    1.67  NaCl
  O2(g)           -11.63    -15.00   -3.37  O2

**For a gas, SI = log10(fugacity). Fugacity = pressure * phi / 1 atm.
  For ideal gases, phi = 1.

Reaction step 13.

Using solution 1.	
Using gas phase 1.	
Using reaction 1.	

Reaction 1.	

	  1.300e-01 moles of the following reaction have been added:

	                 Relative
	Reactant            moles

	CO2(g)               1.00000

	                 Relative
	Element             moles
	C                    1.00000
	O                    2.00000

----------------Fixed-pressure gas phase 1 dissolved completely----------------

-----------------------------Solution composition------------------------------

	Elements           Molality       Moles

	C                 1.300e-01   1.300e-01
	Cl                1.000e-02   1.000e-02
	Na                1.000e-02   1.000e-02

----------------------------Description of solution----------------------------

                                       pH  =   3.469      Charge balance
                                       pe  =   2.075      Adjusted to redox equilibrium
      Specific Conductance (µS/cm,  65°C)  = 2400
                          Density (g/cm³)  =   1.00683
                               Volume (L)  =   0.99948
                        Viscosity (mPa s)  =   0.45183
                        Activity of water  =   0.997
                 Ionic strength (mol/kgw)  =   1.037e-02
                       Mass of water (kg)  =   1.000e+00
                 Total alkalinity (eq/kg)  =  -8.978e-15
                       Total CO2 (mol/kg)  =   1.300e-01
                         Temperature (°C)  =  65.00
                           Pressure (atm)  = 600.00
                  Electrical balance (eq)  =   8.796e-15
 Percent error, 100*(Cat-|An|)/(Cat+|An|)  =   0.00
                               Iterations  =  14
                                  Total H  = 1.110124e+02
                                  Total O  = 5.576622e+01

----------------------------Distribution of species----------------------------

                                               Log       Log       Log    mole V
   Species          Molality    Activity  Molality  Activity     Gamma   cm³/mol

   H+              3.737e-04   3.396e-04    -3.427    -3.469    -0.042      0.00
   OH-             6.818e-10   6.096e-10    -9.166    -9.215    -0.049     -5.32
   H2O             5.551e+01   9.975e-01     1.744    -0.001     0.000     17.92
C(-4)         5.508e-27
   CH4             5.508e-27   5.521e-27   -26.259   -26.258     0.001     38.40
C(4)          1.300e-01
   CO2             1.279e-01   1.281e-01    -0.893    -0.892     0.001     35.66
   (CO2)2          8.605e-04   8.625e-04    -3.065    -3.064     0.001     71.33
   HCO3-           3.682e-04   3.313e-04    -3.434    -3.480    -0.046     27.72
   NaHCO3          6.673e-06   6.705e-06    -5.176    -5.174     0.002     31.50
   CO3-2           1.932e-10   1.265e-10    -9.714    -9.898    -0.184      1.36
Cl            1.000e-02
   Cl-             9.999e-03   8.948e-03    -2.000    -2.048    -0.048     18.27
   HCl             1.199e-06   1.212e-06    -5.921    -5.917     0.004     (0)  
H(0)          4.401e-15
   H2              2.201e-15   2.206e-15   -14.657   -14.656     0.001     28.34
Na            1.000e-02
   Na+             9.993e-03   8.971e-03    -2.000    -2.047    -0.047      1.45
   NaHCO3          6.673e-06   6.705e-06    -5.176    -5.174     0.002     31.50
O(0)          0.000e+00
   O2              0.000e+00   0.000e+00   -52.076   -52.075     0.001     31.28

------------------------------Saturation indices-------------------------------

  Phase               SI** log IAP   log K(338 K, 600 atm)

  CH4(g)          -22.90    -26.26   -3.36  CH4
  CO2(g)            1.26     -0.89   -2.15  CO2
  H2(g)           -11.25    -14.66   -3.40  H2
  H2O(g)           -0.44     -0.00    0.44  H2O
  Halite           -5.76     -4.10    1.67  NaCl
  O2(g)           -48.70    -52.07   -3.37  O2

**For a gas, SI = log10(fugacity). Fugacity = pressure * phi / 1 atm.
  For ideal gases, phi = 1.

Reaction step 14.

Using solution 1.	
Using gas phase 1.	
Using reaction 1.	

Reaction 1.	

	  1.400e-01 moles of the following reaction have been added:

	                 Relative
	Reactant            moles

	CO2(g)               1.00000

	                 Relative
	Element             moles
	C                    1.00000
	O                    2.00000

----------------Fixed-pressure gas phase 1 dissolved completely----------------

-----------------------------Solution composition------------------------------

	Elements           Molality       Moles

	C                 1.400e-01   1.400e-01
	Cl                1.000e-02   1.000e-02
	Na                1.000e-02   1.000e-02

----------------------------Description of solution----------------------------

                                       pH  =   3.453      Charge balance
                                       pe  =  11.292      Adjusted to redox equilibrium
      Specific Conductance (µS/cm,  65°C)  = 2406
                          Density (g/cm³)  =   1.00691
                               Volume (L)  =   0.99984
                        Viscosity (mPa s)  =   0.45199
                        Activity of water  =   0.997
                 Ionic strength (mol/kgw)  =   1.038e-02
                       Mass of water (kg)  =   1.000e+00
                 Total alkalinity (eq/kg)  =  -1.976e-14
                       Total CO2 (mol/kg)  =   1.400e-01
                         Temperature (°C)  =  65.00
                           Pressure (atm)  = 600.00
                  Electrical balance (eq)  =   1.932e-14
 Percent error, 100*(Cat-|An|)/(Cat+|An|)  =   0.00
                               Iterations  =  14
                                  Total H  = 1.110124e+02
                                  Total O  = 5.578622e+01

----------------------------Distribution of species----------------------------

                                               Log       Log       Log    mole V
   Species          Molality    Activity  Molality  Activity     Gamma   cm³/mol

   H+              3.876e-04   3.522e-04    -3.412    -3.453    -0.042      0.00
   OH-             6.572e-10   5.877e-10    -9.182    -9.231    -0.049     -5.32
   H2O             5.551e+01   9.973e-01     1.744    -0.001     0.000     17.92
C(-4)         0.000e+00
   CH4             0.000e+00   0.000e+00   -99.837   -99.836     0.001     38.40
C(4)          1.400e-01
   CO2             1.376e-01   1.378e-01    -0.861    -0.861     0.001     35.66
   (CO2)2          9.962e-04   9.986e-04    -3.002    -3.001     0.001     71.33
   HCO3-           3.820e-04   3.436e-04    -3.418    -3.464    -0.046     27.72
   NaHCO3          6.920e-06   6.954e-06    -5.160    -5.158     0.002     31.50
   CO3-2           1.932e-10   1.265e-10    -9.714    -9.898    -0.184      1.36
Cl            1.000e-02
   Cl-             9.999e-03   8.948e-03    -2.000    -2.048    -0.048     18.27
   HCl             1.244e-06   1.257e-06    -5.905    -5.901     0.004     (0)  
H(0)          1.743e-33
   H2              8.713e-34   8.734e-34   -33.060   -33.059     0.001     28.34
Na            1.000e-02
   Na+             9.993e-03   8.970e-03    -2.000    -2.047    -0.047      1.45
   NaHCO3          6.920e-06   6.954e-06    -5.160    -5.158     0.002     31.50
O(0)          1.071e-15
   O2              5.355e-16   5.368e-16   -15.271   -15.270     0.001     31.28

------------------------------Saturation indices-------------------------------

  Phase               SI** log IAP   log K(338 K, 600 atm)

  CH4(g)          -96.47    -99.84   -3.36  CH4
  CO2(g)            1.29     -0.86   -2.15  CO2
  H2(g)           -29.65    -33.06   -3.40  H2
  H2O(g)           -0.44     -0.00    0.44  H2O
  Halite           -5.76     -4.10    1.67  NaCl
  O2(g)           -11.90    -15.27   -3.37  O2

**For a gas, SI = log10(fugacity). Fugacity = pressure * phi / 1 atm.
  For ideal gases, phi = 1.

Reaction step 15.

Using solution 1.	
Using gas phase 1.	
Using reaction 1.	

Reaction 1.	

	  1.500e-01 moles of the following reaction have been added:

	                 Relative
	Reactant            moles

	CO2(g)               1.00000

	                 Relative
	Element             moles
	C                    1.00000
	O                    2.00000

----------------Fixed-pressure gas phase 1 dissolved completely----------------

-----------------------------Solution composition------------------------------

	Elements           Molality       Moles

	C                 1.500e-01   1.500e-01
	Cl                1.000e-02   1.000e-02
	Na                1.000e-02   1.000e-02

----------------------------Description of solution----------------------------

                                       pH  =   3.438      Charge balance
                                       pe  =   2.050      Adjusted to redox equilibrium
      Specific Conductance (µS/cm,  65°C)  = 2411
                          Density (g/cm³)  =   1.00699
                               Volume (L)  =   1.00019
                        Viscosity (mPa s)  =   0.45214
                        Activity of water  =   0.997
                 Ionic strength (mol/kgw)  =   1.039e-02
                       Mass of water (kg)  =   1.000e+00
                 Total alkalinity (eq/kg)  =  -7.840e-15
                       Total CO2 (mol/kg)  =   1.500e-01
                         Temperature (°C)  =  65.00
                           Pressure (atm)  = 600.00
                  Electrical balance (eq)  =   7.683e-15
 Percent error, 100*(Cat-|An|)/(Cat+|An|)  =   0.00
                               Iterations  =  15
                                  Total H  = 1.110124e+02
                                  Total O  = 5.580622e+01

----------------------------Distribution of species----------------------------

                                               Log       Log       Log    mole V
   Species          Molality    Activity  Molality  Activity     Gamma   cm³/mol

   H+              4.011e-04   3.644e-04    -3.397    -3.438    -0.042      0.00
   OH-             6.352e-10   5.679e-10    -9.197    -9.246    -0.049     -5.32
   H2O             5.551e+01   9.971e-01     1.744    -0.001     0.000     17.92
C(-4)         1.781e-26
   CH4             1.781e-26   1.786e-26   -25.749   -25.748     0.001     38.40
C(4)          1.500e-01
   CO2             1.473e-01   1.475e-01    -0.832    -0.831     0.001     35.66
   (CO2)2          1.141e-03   1.144e-03    -2.943    -2.941     0.001     71.33
   HCO3-           3.952e-04   3.555e-04    -3.403    -3.449    -0.046     27.72
   NaHCO3          7.159e-06   7.193e-06    -5.145    -5.143     0.002     31.50
   CO3-2           1.933e-10   1.265e-10    -9.714    -9.898    -0.184      1.36
Cl            1.000e-02
   Cl-             9.999e-03   8.947e-03    -2.000    -2.048    -0.048     18.27
   HCl             1.287e-06   1.300e-06    -5.891    -5.886     0.004     (0)  
H(0)          5.697e-15
   H2              2.848e-15   2.855e-15   -14.545   -14.544     0.001     28.34
Na            1.000e-02
   Na+             9.993e-03   8.969e-03    -2.000    -2.047    -0.047      1.45
   NaHCO3          7.159e-06   7.193e-06    -5.145    -5.143     0.002     31.50
O(0)          0.000e+00
   O2              0.000e+00   0.000e+00   -52.300   -52.299     0.001     31.28

------------------------------Saturation indices-------------------------------

  Phase               SI** log IAP   log K(338 K, 600 atm)

  CH4(g)          -22.39    -25.75   -3.36  CH4
  CO2(g)            1.32     -0.83   -2.15  CO2
  H2(g)           -11.14    -14.54   -3.40  H2
  H2O(g)           -0.44     -0.00    0.44  H2O
  Halite           -5.76     -4.10    1.67  NaCl
  O2(g)           -48.93    -52.30   -3.37  O2

**For a gas, SI = log10(fugacity). Fugacity = pressure * phi / 1 atm.
  For ideal gases, phi = 1.

Reaction step 16.

Using solution 1.	
Using gas phase 1.	
Using reaction 1.	

Reaction 1.	

	  1.600e-01 moles of the following reaction have been added:

	                 Relative
	Reactant            moles

	CO2(g)               1.00000

	                 Relative
	Element             moles
	C                    1.00000
	O                    2.00000

----------------Fixed-pressure gas phase 1 dissolved completely----------------

-----------------------------Solution composition------------------------------

	Elements           Molality       Moles

	C                 1.600e-01   1.600e-01
	Cl                1.000e-02   1.000e-02
	Na                1.000e-02   1.000e-02

----------------------------Description of solution----------------------------

                                       pH  =   3.425      Charge balance
                                       pe  =  11.160      Adjusted to redox equilibrium
      Specific Conductance (µS/cm,  65°C)  = 2416
                          Density (g/cm³)  =   1.00707
                               Volume (L)  =   1.00055
                        Viscosity (mPa s)  =   0.45230
                        Activity of water  =   0.997
                 Ionic strength (mol/kgw)  =   1.041e-02
                       Mass of water (kg)  =   1.000e+00
                 Total alkalinity (eq/kg)  =  -1.911e-14
                       Total CO2 (mol/kg)  =   1.600e-01
                         Temperature (°C)  =  65.00
                           Pressure (atm)  = 600.00
                  Electrical balance (eq)  =   1.864e-14
 Percent error, 100*(Cat-|An|)/(Cat+|An|)  =   0.00
                               Iterations  =  15
                                  Total H  = 1.110124e+02
                                  Total O  = 5.582622e+01

----------------------------Distribution of species----------------------------

                                               Log       Log       Log    mole V
   Species          Molality    Activity  Molality  Activity     Gamma   cm³/mol

   H+              4.140e-04   3.761e-04    -3.383    -3.425    -0.042      0.00
   OH-             6.153e-10   5.501e-10    -9.211    -9.260    -0.049     -5.32
   H2O             5.551e+01   9.970e-01     1.744    -0.001     0.000     17.92
C(-4)         0.000e+00
   CH4             0.000e+00   0.000e+00   -98.496   -98.495     0.001     38.40
C(4)          1.600e-01
   CO2             1.570e-01   1.572e-01    -0.804    -0.803     0.001     35.66
   (CO2)2          1.296e-03   1.299e-03    -2.887    -2.886     0.001     71.33
   HCO3-           4.079e-04   3.669e-04    -3.389    -3.435    -0.046     27.72
   NaHCO3          7.389e-06   7.424e-06    -5.131    -5.129     0.002     31.50
   CO3-2           1.933e-10   1.265e-10    -9.714    -9.898    -0.184      1.36
Cl            1.000e-02
   Cl-             9.999e-03   8.946e-03    -2.000    -2.048    -0.048     18.27
   HCl             1.328e-06   1.342e-06    -5.877    -5.872     0.004     (0)  
H(0)          3.648e-33
   H2              1.824e-33   1.828e-33   -32.739   -32.738     0.001     28.34
Na            1.000e-02
   Na+             9.993e-03   8.968e-03    -2.000    -2.047    -0.047      1.45
   NaHCO3          7.389e-06   7.424e-06    -5.131    -5.129     0.002     31.50
O(0)          2.442e-16
   O2              1.221e-16   1.224e-16   -15.913   -15.912     0.001     31.28

------------------------------Saturation indices-------------------------------

  Phase               SI** log IAP   log K(338 K, 600 atm)

  CH4(g)          -95.13    -98.49   -3.36  CH4
  CO2(g)            1.35     -0.80   -2.15  CO2
  H2(g)           -29.33    -32.74   -3.40  H2
  H2O(g)           -0.44     -0.00    0.44  H2O
  Halite           -5.76     -4.10    1.67  NaCl
  O2(g)           -12.54    -15.91   -3.37  O2

**For a gas, SI = log10(fugacity). Fugacity = pressure * phi / 1 atm.
  For ideal gases, phi = 1.

Reaction step 17.

Using solution 1.	
Using gas phase 1.	
Using reaction 1.	

Reaction 1.	

	  1.700e-01 moles of the following reaction have been added:

	                 Relative
	Reactant            moles

	CO2(g)               1.00000

	                 Relative
	Element             moles
	C                    1.00000
	O                    2.00000

----------------Fixed-pressure gas phase 1 dissolved completely----------------

-----------------------------Solution composition------------------------------

	Elements           Molality       Moles

	C                 1.700e-01   1.700e-01
	Cl                1.000e-02   1.000e-02
	Na                1.000e-02   1.000e-02

----------------------------Description of solution----------------------------

                                       pH  =   3.412      Charge balance
                                       pe  =  11.457      Adjusted to redox equilibrium
      Specific Conductance (µS/cm,  65°C)  = 2421
                          Density (g/cm³)  =   1.00715
                               Volume (L)  =   1.00091
                        Viscosity (mPa s)  =   0.45245
                        Activity of water  =   0.997
                 Ionic strength (mol/kgw)  =   1.042e-02
                       Mass of water (kg)  =   1.000e+00
                 Total alkalinity (eq/kg)  =  -2.487e-14
                       Total CO2 (mol/kg)  =   1.700e-01
                         Temperature (°C)  =  65.00
                           Pressure (atm)  = 600.00
                  Electrical balance (eq)  =   2.423e-14
 Percent error, 100*(Cat-|An|)/(Cat+|An|)  =   0.00
                               Iterations  =  14
                                  Total H  = 1.110124e+02
                                  Total O  = 5.584622e+01

----------------------------Distribution of species----------------------------

                                               Log       Log       Log    mole V
   Species          Molality    Activity  Molality  Activity     Gamma   cm³/mol

   H+              4.265e-04   3.875e-04    -3.370    -3.412    -0.042      0.00
   OH-             5.972e-10   5.339e-10    -9.224    -9.273    -0.049     -5.32
   H2O             5.551e+01   9.968e-01     1.744    -0.001     0.000     17.92
C(-4)         0.000e+00
   CH4             0.000e+00   0.000e+00  -100.741  -100.740     0.001     38.40
C(4)          1.700e-01
   CO2             1.667e-01   1.669e-01    -0.778    -0.778     0.001     35.66
   (CO2)2          1.461e-03   1.464e-03    -2.835    -2.834     0.001     71.33
   HCO3-           4.203e-04   3.780e-04    -3.376    -3.422    -0.046     27.72
   NaHCO3          7.612e-06   7.648e-06    -5.119    -5.116     0.002     31.50
   CO3-2           1.933e-10   1.265e-10    -9.714    -9.898    -0.184      1.36
Cl            1.000e-02
   Cl-             9.999e-03   8.946e-03    -2.000    -2.048    -0.048     18.27
   HCl             1.368e-06   1.382e-06    -5.864    -5.859     0.004     (0)  
H(0)          9.868e-34
   H2              4.934e-34   4.946e-34   -33.307   -33.306     0.001     28.34
Na            1.000e-02
   Na+             9.992e-03   8.968e-03    -2.000    -2.047    -0.047      1.45
   NaHCO3          7.612e-06   7.648e-06    -5.119    -5.116     0.002     31.50
O(0)          3.337e-15
   O2              1.668e-15   1.672e-15   -14.778   -14.777     0.001     31.28

------------------------------Saturation indices-------------------------------

  Phase               SI** log IAP   log K(338 K, 600 atm)

  CH4(g)          -97.38   -100.74   -3.36  CH4
  CO2(g)            1.37     -0.78   -2.15  CO2
  H2(g)           -29.90    -33.31   -3.40  H2
  H2O(g)           -0.44     -0.00    0.44  H2O
  Halite           -5.76     -4.10    1.67  NaCl
  O2(g)           -11.41    -14.78   -3.37  O2

**For a gas, SI = log10(fugacity). Fugacity = pressure * phi / 1 atm.
  For ideal gases, phi = 1.

Reaction step 18.

Using solution 1.	
Using gas phase 1.	
Using reaction 1.	

Reaction 1.	

	  1.800e-01 moles of the following reaction have been added:

	                 Relative
	Reactant            moles

	CO2(g)               1.00000

	                 Relative
	Element             moles
	C                    1.00000
	O                    2.00000

----------------Fixed-pressure gas phase 1 dissolved completely----------------

-----------------------------Solution composition------------------------------

	Elements           Molality       Moles

	C                 1.800e-01   1.800e-01
	Cl                1.000e-02   1.000e-02
	Na                1.000e-02   1.000e-02

----------------------------Description of solution----------------------------

                                       pH  =   3.400      Charge balance
                                       pe  =   2.470      Adjusted to redox equilibrium
      Specific Conductance (µS/cm,  65°C)  = 2426
                          Density (g/cm³)  =   1.00723
                               Volume (L)  =   1.00126
                        Viscosity (mPa s)  =   0.45260
                        Activity of water  =   0.997
                 Ionic strength (mol/kgw)  =   1.043e-02
                       Mass of water (kg)  =   1.000e+00
                 Total alkalinity (eq/kg)  =  -3.155e-14
                       Total CO2 (mol/kg)  =   1.800e-01
                         Temperature (°C)  =  65.00
                           Pressure (atm)  = 600.00
                  Electrical balance (eq)  =   3.075e-14
 Percent error, 100*(Cat-|An|)/(Cat+|An|)  =   0.00
                               Iterations  =  15
                                  Total H  = 1.110124e+02
                                  Total O  = 5.586622e+01

----------------------------Distribution of species----------------------------

                                               Log       Log       Log    mole V
   Species          Molality    Activity  Molality  Activity     Gamma   cm³/mol

   H+              4.387e-04   3.985e-04    -3.358    -3.400    -0.042      0.00
   OH-             5.806e-10   5.190e-10    -9.236    -9.285    -0.049     -5.32
   H2O             5.551e+01   9.966e-01     1.744    -0.001     0.000     17.92
C(-4)         1.905e-29
   CH4             1.905e-29   1.909e-29   -28.720   -28.719     0.001     38.40
C(4)          1.800e-01
   CO2             1.763e-01   1.766e-01    -0.754    -0.753     0.001     35.66
   (CO2)2          1.635e-03   1.639e-03    -2.787    -2.786     0.001     71.33
   HCO3-           4.323e-04   3.888e-04    -3.364    -3.410    -0.046     27.72
   NaHCO3          7.827e-06   7.865e-06    -5.106    -5.104     0.002     31.50
   CO3-2           1.934e-10   1.265e-10    -9.714    -9.898    -0.184      1.36
Cl            1.000e-02
   Cl-             9.999e-03   8.945e-03    -2.000    -2.048    -0.048     18.27
   HCl             1.407e-06   1.421e-06    -5.852    -5.847     0.004     (0)  
H(0)          9.847e-16
   H2              4.923e-16   4.935e-16   -15.308   -15.307     0.001     28.34
Na            1.000e-02
   Na+             9.992e-03   8.967e-03    -2.000    -2.047    -0.047      1.45
   NaHCO3          7.827e-06   7.865e-06    -5.106    -5.104     0.002     31.50
O(0)          0.000e+00
   O2              0.000e+00   0.000e+00   -50.776   -50.775     0.001     31.28

------------------------------Saturation indices-------------------------------

  Phase               SI** log IAP   log K(338 K, 600 atm)

  CH4(g)          -25.36    -28.72   -3.36  CH4
  CO2(g)            1.40     -0.75   -2.15  CO2
  H2(g)           -11.90    -15.31   -3.40  H2
  H2O(g)           -0.44     -0.00    0.44  H2O
  Halite           -5.76     -4.10    1.67  NaCl
  O2(g)           -47.40    -50.77   -3.37  O2

**For a gas, SI = log10(fugacity). Fugacity = pressure * phi / 1 atm.
  For ideal gases, phi = 1.

Reaction step 19.

Using solution 1.	
Using gas phase 1.	
Using reaction 1.	

Reaction 1.	

	  1.900e-01 moles of the following reaction have been added:

	                 Relative
	Reactant            moles

	CO2(g)               1.00000

	                 Relative
	Element             moles
	C                    1.00000
	O                    2.00000

----------------Fixed-pressure gas phase 1 dissolved completely----------------

-----------------------------Solution composition------------------------------

	Elements           Molality       Moles

	C                 1.900e-01   1.900e-01
	Cl                1.000e-02   1.000e-02
	Na                1.000e-02   1.000e-02

----------------------------Description of solution----------------------------

                                       pH  =   3.388      Charge balance
                                       pe  =  11.451      Adjusted to redox equilibrium
      Specific Conductance (µS/cm,  65°C)  = 2430
                          Density (g/cm³)  =   1.00732
                               Volume (L)  =   1.00162
                        Viscosity (mPa s)  =   0.45275
                        Activity of water  =   0.996
                 Ionic strength (mol/kgw)  =   1.044e-02
                       Mass of water (kg)  =   1.000e+00
                 Total alkalinity (eq/kg)  =  -4.085e-14
                       Total CO2 (mol/kg)  =   1.900e-01
                         Temperature (°C)  =  65.00
                           Pressure (atm)  = 600.00
                  Electrical balance (eq)  =   3.983e-14
 Percent error, 100*(Cat-|An|)/(Cat+|An|)  =   0.00
                               Iterations  =  14
                                  Total H  = 1.110124e+02
                                  Total O  = 5.588622e+01

----------------------------Distribution of species----------------------------

                                               Log       Log       Log    mole V
   Species          Molality    Activity  Molality  Activity     Gamma   cm³/mol

   H+              4.505e-04   4.092e-04    -3.346    -3.388    -0.042      0.00
   OH-             5.654e-10   5.054e-10    -9.248    -9.296    -0.049     -5.32
   H2O             5.551e+01   9.965e-01     1.744    -0.002     0.000     17.92
C(-4)         0.000e+00
   CH4             0.000e+00   0.000e+00  -100.456  -100.455     0.001     38.40
C(4)          1.900e-01
   CO2             1.859e-01   1.862e-01    -0.731    -0.730     0.001     35.66
   (CO2)2          1.818e-03   1.822e-03    -2.740    -2.739     0.001     71.33
   HCO3-           4.439e-04   3.992e-04    -3.353    -3.399    -0.046     27.72
   NaHCO3          8.037e-06   8.075e-06    -5.095    -5.093     0.002     31.50
   CO3-2           1.934e-10   1.265e-10    -9.714    -9.898    -0.184      1.36
Cl            1.000e-02
   Cl-             9.999e-03   8.945e-03    -2.000    -2.048    -0.048     18.27
   HCl             1.445e-06   1.459e-06    -5.840    -5.836     0.004     (0)  
H(0)          1.131e-33
   H2              5.654e-34   5.668e-34   -33.248   -33.247     0.001     28.34
Na            1.000e-02
   Na+             9.992e-03   8.966e-03    -2.000    -2.047    -0.047      1.45
   NaHCO3          8.037e-06   8.075e-06    -5.095    -5.093     0.002     31.50
O(0)          2.539e-15
   O2              1.269e-15   1.273e-15   -14.896   -14.895     0.001     31.28

------------------------------Saturation indices-------------------------------

  Phase               SI** log IAP   log K(338 K, 600 atm)

  CH4(g)          -97.09   -100.46   -3.36  CH4
  CO2(g)            1.42     -0.73   -2.15  CO2
  H2(g)           -29.84    -33.25   -3.40  H2
  H2O(g)           -0.44     -0.00    0.44  H2O
  Halite           -5.76     -4.10    1.67  NaCl
  O2(g)           -11.52    -14.90   -3.37  O2

**For a gas, SI = log10(fugacity). Fugacity = pressure * phi / 1 atm.
  For ideal gases, phi = 1.

Reaction step 20.

Using solution 1.	
Using gas phase 1.	
Using reaction 1.	

Reaction 1.	

	  2.000e-01 moles of the following reaction have been added:

	                 Relative
	Reactant            moles

	CO2(g)               1.00000

	                 Relative
	Element             moles
	C                    1.00000
	O                    2.00000

----------------Fixed-pressure gas phase 1 dissolved completely----------------

-----------------------------Solution composition------------------------------

	Elements           Molality       Moles

	C                 2.000e-01   2.000e-01
	Cl                1.000e-02   1.000e-02
	Na                1.000e-02   1.000e-02

----------------------------Description of solution----------------------------

                                       pH  =   3.377      Charge balance
[...]
  O2(g)           -48.38    -51.75   -3.37  O2

**For a gas, SI = log10(fugacity). Fugacity = pressure * phi / 1 atm.
  For ideal gases, phi = 1.

Reaction step 96.

Using solution 1.	
Using gas phase 1.	
Using reaction 1.	

Reaction 1.	

	  9.600e-01 moles of the following reaction have been added:

	                 Relative
	Reactant            moles

	CO2(g)               1.00000

	                 Relative
	Element             moles
	C                    1.00000
	O                    2.00000

----------------Fixed-pressure gas phase 1 dissolved completely----------------

-----------------------------Solution composition------------------------------

	Elements           Molality       Moles

	C                 9.600e-01   9.600e-01
	Cl                1.000e-02   1.000e-02
	Na                1.000e-02   1.000e-02

----------------------------Description of solution----------------------------

                                       pH  =   3.054      Charge balance
                                       pe  =  11.758      Adjusted to redox equilibrium
      Specific Conductance (µS/cm,  65°C)  = 2544
                          Density (g/cm³)  =   1.01338
                               Volume (L)  =   1.02907
                        Viscosity (mPa s)  =   0.46330
                        Activity of water  =   0.984
                 Ionic strength (mol/kgw)  =   1.096e-02
                       Mass of water (kg)  =   1.000e+00
                 Total alkalinity (eq/kg)  =   9.605e-14
                       Total CO2 (mol/kg)  =   9.600e-01
                         Temperature (°C)  =  65.00
                           Pressure (atm)  = 600.00
                  Electrical balance (eq)  =  -8.048e-14
 Percent error, 100*(Cat-|An|)/(Cat+|An|)  =  -0.00
                               Iterations  =  15
                                  Total H  = 1.110124e+02
                                  Total O  = 5.742622e+01

----------------------------Distribution of species----------------------------

                                               Log       Log       Log    mole V
   Species          Molality    Activity  Molality  Activity     Gamma   cm³/mol

   H+              9.747e-04   8.838e-04    -3.011    -3.054    -0.043      0.00
   OH-             2.591e-10   2.310e-10    -9.587    -9.636    -0.050     -5.31
   H2O             5.551e+01   9.840e-01     1.744    -0.007     0.000     17.92
C(-4)         0.000e+00
   CH4             0.000e+00   0.000e+00   -99.553   -99.552     0.001     38.40
C(4)          9.600e-01
   CO2             8.780e-01   8.794e-01    -0.057    -0.056     0.001     35.66
   (CO2)2          4.054e-02   4.065e-02    -1.392    -1.391     0.001     71.33
   HCO3-           9.605e-04   8.619e-04    -3.018    -3.065    -0.047     27.72
   NaHCO3          1.730e-05   1.738e-05    -4.762    -4.760     0.002     31.50
   CO3-2           1.950e-10   1.265e-10    -9.710    -9.898    -0.188      1.37
Cl            1.000e-02
   Cl-             9.997e-03   8.922e-03    -2.000    -2.050    -0.049     18.27
   HCl             3.111e-06   3.144e-06    -5.507    -5.502     0.005     (0)  
H(0)          1.282e-33
   H2              6.412e-34   6.428e-34   -33.193   -33.192     0.001     28.34
Na            1.000e-02
   Na+             9.983e-03   8.938e-03    -2.001    -2.049    -0.048      1.45
   NaHCO3          1.730e-05   1.738e-05    -4.762    -4.760     0.002     31.50
O(0)          1.924e-15
   O2              9.622e-16   9.646e-16   -15.017   -15.016     0.001     31.28

------------------------------Saturation indices-------------------------------

  Phase               SI** log IAP   log K(338 K, 600 atm)

  CH4(g)          -96.19    -99.55   -3.36  CH4
  CO2(g)            2.09     -0.06   -2.15  CO2
  H2(g)           -29.79    -33.19   -3.40  H2
  H2O(g)           -0.45     -0.01    0.44  H2O
  Halite           -5.77     -4.10    1.67  NaCl
  O2(g)           -11.64    -15.02   -3.37  O2

**For a gas, SI = log10(fugacity). Fugacity = pressure * phi / 1 atm.
  For ideal gases, phi = 1.

Reaction step 97.

Using solution 1.	
Using gas phase 1.	
Using reaction 1.	

Reaction 1.	

	  9.700e-01 moles of the following reaction have been added:

	                 Relative
	Reactant            moles

	CO2(g)               1.00000

	                 Relative
	Element             moles
	C                    1.00000
	O                    2.00000

----------------Fixed-pressure gas phase 1 dissolved completely----------------

-----------------------------Solution composition------------------------------

	Elements           Molality       Moles

	C                 9.700e-01   9.700e-01
	Cl                1.000e-02   1.000e-02
	Na                1.000e-02   1.000e-02

----------------------------Description of solution----------------------------

                                       pH  =   3.052      Charge balance
                                       pe  =   2.504      Adjusted to redox equilibrium
      Specific Conductance (µS/cm,  65°C)  = 2545
                          Density (g/cm³)  =   1.01346
                               Volume (L)  =   1.02942
                        Viscosity (mPa s)  =   0.46343
                        Activity of water  =   0.984
                 Ionic strength (mol/kgw)  =   1.096e-02
                       Mass of water (kg)  =   1.000e+00
                 Total alkalinity (eq/kg)  =  -5.795e-16
                       Total CO2 (mol/kg)  =   9.700e-01
                         Temperature (°C)  =  65.00
                           Pressure (atm)  = 600.00
                  Electrical balance (eq)  =   6.402e-16
 Percent error, 100*(Cat-|An|)/(Cat+|An|)  =   0.00
                               Iterations  =  23
                                  Total H  = 1.110124e+02
                                  Total O  = 5.744622e+01

----------------------------Distribution of species----------------------------

                                               Log       Log       Log    mole V
   Species          Molality    Activity  Molality  Activity     Gamma   cm³/mol

   H+              9.793e-04   8.880e-04    -3.009    -3.052    -0.043      0.00
   OH-             2.579e-10   2.299e-10    -9.589    -9.638    -0.050     -5.31
   H2O             5.551e+01   9.839e-01     1.744    -0.007     0.000     17.92
C(-4)         3.169e-26
   CH4             3.169e-26   3.177e-26   -25.499   -25.498     0.001     38.40
C(4)          9.700e-01
   CO2             8.864e-01   8.879e-01    -0.052    -0.052     0.001     35.66
   (CO2)2          4.133e-02   4.143e-02    -1.384    -1.383     0.001     71.33
   HCO3-           9.650e-04   8.660e-04    -3.015    -3.062    -0.047     27.72
   NaHCO3          1.738e-05   1.746e-05    -4.760    -4.758     0.002     31.50
   CO3-2           1.950e-10   1.265e-10    -9.710    -9.898    -0.188      1.37
Cl            1.000e-02
   Cl-             9.997e-03   8.922e-03    -2.000    -2.050    -0.049     18.27
   HCl             3.125e-06   3.159e-06    -5.505    -5.500     0.005     (0)  
H(0)          4.172e-15
   H2              2.086e-15   2.091e-15   -14.681   -14.680     0.001     28.34
Na            1.000e-02
   Na+             9.983e-03   8.938e-03    -2.001    -2.049    -0.048      1.45
   NaHCO3          1.738e-05   1.746e-05    -4.760    -4.758     0.002     31.50
O(0)          0.000e+00
   O2              0.000e+00   0.000e+00   -52.042   -52.040     0.001     31.28

------------------------------Saturation indices-------------------------------

  Phase               SI** log IAP   log K(338 K, 600 atm)

  CH4(g)          -22.14    -25.50   -3.36  CH4
  CO2(g)            2.10     -0.05   -2.15  CO2
  H2(g)           -11.28    -14.68   -3.40  H2
  H2O(g)           -0.45     -0.01    0.44  H2O
  Halite           -5.77     -4.10    1.67  NaCl
  O2(g)           -48.67    -52.04   -3.37  O2

**For a gas, SI = log10(fugacity). Fugacity = pressure * phi / 1 atm.
  For ideal gases, phi = 1.

Reaction step 98.

Using solution 1.	
Using gas phase 1.	
Using reaction 1.	

Reaction 1.	

	  9.800e-01 moles of the following reaction have been added:

	                 Relative
	Reactant            moles

	CO2(g)               1.00000

	                 Relative
	Element             moles
	C                    1.00000
	O                    2.00000

----------------Fixed-pressure gas phase 1 dissolved completely----------------

-----------------------------Solution composition------------------------------

	Elements           Molality       Moles

	C                 9.800e-01   9.800e-01
	Cl                1.000e-02   1.000e-02
	Na                1.000e-02   1.000e-02

----------------------------Description of solution----------------------------

                                       pH  =   3.050      Charge balance
                                       pe  =  11.682      Adjusted to redox equilibrium
      Specific Conductance (µS/cm,  65°C)  = 2545
                          Density (g/cm³)  =   1.01353
                               Volume (L)  =   1.02978
                        Viscosity (mPa s)  =   0.46357
                        Activity of water  =   0.984
                 Ionic strength (mol/kgw)  =   1.097e-02
                       Mass of water (kg)  =   1.000e+00
                 Total alkalinity (eq/kg)  =  -2.341e-15
                       Total CO2 (mol/kg)  =   9.800e-01
                         Temperature (°C)  =  65.00
                           Pressure (atm)  = 600.00
                  Electrical balance (eq)  =   2.348e-15
 Percent error, 100*(Cat-|An|)/(Cat+|An|)  =   0.00
                               Iterations  =  27
                                  Total H  = 1.110124e+02
                                  Total O  = 5.746622e+01

----------------------------Distribution of species----------------------------

                                               Log       Log       Log    mole V
   Species          Molality    Activity  Molality  Activity     Gamma   cm³/mol

   H+              9.839e-04   8.921e-04    -3.007    -3.050    -0.043      0.00
   OH-             2.566e-10   2.288e-10    -9.591    -9.640    -0.050     -5.31
   H2O             5.551e+01   9.837e-01     1.744    -0.007     0.000     17.92
C(-4)         0.000e+00
   CH4             0.000e+00   0.000e+00   -98.903   -98.902     0.001     38.40
C(4)          9.800e-01
   CO2             8.948e-01   8.963e-01    -0.048    -0.048     0.001     35.66
   (CO2)2          4.212e-02   4.222e-02    -1.376    -1.374     0.001     71.33
   HCO3-           9.695e-04   8.700e-04    -3.013    -3.060    -0.047     27.72
   NaHCO3          1.746e-05   1.755e-05    -4.758    -4.756     0.002     31.50
   CO3-2           1.950e-10   1.265e-10    -9.710    -9.898    -0.188      1.37
Cl            1.000e-02
   Cl-             9.997e-03   8.922e-03    -2.000    -2.050    -0.049     18.27
   HCl             3.140e-06   3.174e-06    -5.503    -5.498     0.005     (0)  
H(0)          1.855e-33
   H2              9.276e-34   9.300e-34   -33.033   -33.032     0.001     28.34
Na            1.000e-02
   Na+             9.983e-03   8.938e-03    -2.001    -2.049    -0.048      1.45
   NaHCO3          1.746e-05   1.755e-05    -4.758    -4.756     0.002     31.50
O(0)          9.189e-16
   O2              4.595e-16   4.606e-16   -15.338   -15.337     0.001     31.28

------------------------------Saturation indices-------------------------------

  Phase               SI** log IAP   log K(338 K, 600 atm)

  CH4(g)          -95.54    -98.90   -3.36  CH4
  CO2(g)            2.10     -0.05   -2.15  CO2
  H2(g)           -29.63    -33.03   -3.40  H2
  H2O(g)           -0.45     -0.01    0.44  H2O
  Halite           -5.77     -4.10    1.67  NaCl
  O2(g)           -11.97    -15.34   -3.37  O2

**For a gas, SI = log10(fugacity). Fugacity = pressure * phi / 1 atm.
  For ideal gases, phi = 1.

Reaction step 99.

Using solution 1.	
Using gas phase 1.	
Using reaction 1.	

Reaction 1.	

	  9.900e-01 moles of the following reaction have been added:

	                 Relative
	Reactant            moles

	CO2(g)               1.00000

	                 Relative
	Element             moles
	C                    1.00000
	O                    2.00000

----------------Fixed-pressure gas phase 1 dissolved completely----------------

-----------------------------Solution composition------------------------------

	Elements           Molality       Moles

	C                 9.900e-01   9.900e-01
	Cl                1.000e-02   1.000e-02
	Na                1.000e-02   1.000e-02

----------------------------Description of solution----------------------------

                                       pH  =   3.048      Charge balance
                                       pe  =   2.437      Adjusted to redox equilibrium
      Specific Conductance (µS/cm,  65°C)  = 2545
                          Density (g/cm³)  =   1.01361
                               Volume (L)  =   1.03014
                        Viscosity (mPa s)  =   0.46370
                        Activity of water  =   0.984
                 Ionic strength (mol/kgw)  =   1.097e-02
                       Mass of water (kg)  =   1.000e+00
                 Total alkalinity (eq/kg)  =   4.586e-13
                       Total CO2 (mol/kg)  =   9.900e-01
                         Temperature (°C)  =  65.00
                           Pressure (atm)  = 600.00
                  Electrical balance (eq)  =  -4.313e-13
 Percent error, 100*(Cat-|An|)/(Cat+|An|)  =  -0.00
                               Iterations  =  16
                                  Total H  = 1.110124e+02
                                  Total O  = 5.748622e+01

----------------------------Distribution of species----------------------------

                                               Log       Log       Log    mole V
   Species          Molality    Activity  Molality  Activity     Gamma   cm³/mol

   H+              9.884e-04   8.962e-04    -3.005    -3.048    -0.043      0.00
   OH-             2.554e-10   2.277e-10    -9.593    -9.643    -0.050     -5.31
   H2O             5.551e+01   9.835e-01     1.744    -0.007     0.000     17.92
C(-4)         1.190e-25
   CH4             1.190e-25   1.193e-25   -24.925   -24.923     0.001     38.40
C(4)          9.900e-01
   CO2             9.032e-01   9.047e-01    -0.044    -0.043     0.001     35.66
   (CO2)2          4.291e-02   4.302e-02    -1.367    -1.366     0.001     71.33
   HCO3-           9.740e-04   8.740e-04    -3.011    -3.058    -0.047     27.72
   NaHCO3          1.754e-05   1.763e-05    -4.756    -4.754     0.002     31.50
   CO3-2           1.950e-10   1.265e-10    -9.710    -9.898    -0.188      1.37
Cl            1.000e-02
   Cl-             9.997e-03   8.921e-03    -2.000    -2.050    -0.049     18.27
   HCl             3.154e-06   3.188e-06    -5.501    -5.496     0.005     (0)  
H(0)          5.779e-15
   H2              2.890e-15   2.897e-15   -14.539   -14.538     0.001     28.34
Na            1.000e-02
   Na+             9.983e-03   8.937e-03    -2.001    -2.049    -0.048      1.45
   NaHCO3          1.754e-05   1.763e-05    -4.756    -4.754     0.002     31.50
O(0)          0.000e+00
   O2              0.000e+00   0.000e+00   -52.325   -52.324     0.001     31.28

------------------------------Saturation indices-------------------------------

  Phase               SI** log IAP   log K(338 K, 600 atm)

  CH4(g)          -21.56    -24.92   -3.36  CH4
  CO2(g)            2.11     -0.04   -2.15  CO2
  H2(g)           -11.13    -14.54   -3.40  H2
  H2O(g)           -0.45     -0.01    0.44  H2O
  Halite           -5.77     -4.10    1.67  NaCl
  O2(g)           -48.95    -52.32   -3.37  O2

**For a gas, SI = log10(fugacity). Fugacity = pressure * phi / 1 atm.
  For ideal gases, phi = 1.

Reaction step 100.

Using solution 1.	
Using gas phase 1.	
Using reaction 1.	

Reaction 1.	

	  1.000e+00 moles of the following reaction have been added:

	                 Relative
	Reactant            moles

	CO2(g)               1.00000

	                 Relative
	Element             moles
	C                    1.00000
	O                    2.00000

----------------Fixed-pressure gas phase 1 dissolved completely----------------

-----------------------------Solution composition------------------------------

	Elements           Molality       Moles

	C                 1.000e+00   1.000e+00
	Cl                1.000e-02   1.000e-02
	Na                1.000e-02   1.000e-02

----------------------------Description of solution----------------------------

                                       pH  =   3.046      Charge balance
                                       pe  =   2.980      Adjusted to redox equilibrium
      Specific Conductance (µS/cm,  65°C)  = 2545
                          Density (g/cm³)  =   1.01369
                               Volume (L)  =   1.03049
                        Viscosity (mPa s)  =   0.46383
                        Activity of water  =   0.983
                 Ionic strength (mol/kgw)  =   1.098e-02
                       Mass of water (kg)  =   1.000e+00
                 Total alkalinity (eq/kg)  =  -2.006e-16
                       Total CO2 (mol/kg)  =   1.000e+00
                         Temperature (°C)  =  65.00
                           Pressure (atm)  = 600.00
                  Electrical balance (eq)  =   2.676e-16
 Percent error, 100*(Cat-|An|)/(Cat+|An|)  =   0.00
                               Iterations  =  30
                                  Total H  = 1.110124e+02
                                  Total O  = 5.750622e+01

----------------------------Distribution of species----------------------------

                                               Log       Log       Log    mole V
   Species          Molality    Activity  Molality  Activity     Gamma   cm³/mol

   H+              9.929e-04   9.003e-04    -3.003    -3.046    -0.043      0.00
   OH-             2.542e-10   2.267e-10    -9.595    -9.645    -0.050     -5.31
   H2O             5.551e+01   9.834e-01     1.744    -0.007     0.000     17.92
C(-4)         5.724e-30
   CH4             5.724e-30   5.739e-30   -29.242   -29.241     0.001     38.40
C(4)          1.000e+00
   CO2             9.116e-01   9.131e-01    -0.040    -0.039     0.001     35.66
   (CO2)2          4.371e-02   4.382e-02    -1.359    -1.358     0.001     71.33
   HCO3-           9.785e-04   8.780e-04    -3.009    -3.056    -0.047     27.72
   NaHCO3          1.762e-05   1.771e-05    -4.754    -4.752     0.002     31.50
   CO3-2           1.951e-10   1.265e-10    -9.710    -9.898    -0.188      1.37
Cl            1.000e-02
   Cl-             9.997e-03   8.921e-03    -2.000    -2.050    -0.049     18.27
   HCl             3.169e-06   3.203e-06    -5.499    -5.494     0.005     (0)  
H(0)          4.802e-16
   H2              2.401e-16   2.407e-16   -15.620   -15.619     0.001     28.34
Na            1.000e-02
   Na+             9.983e-03   8.937e-03    -2.001    -2.049    -0.048      1.45
   NaHCO3          1.762e-05   1.771e-05    -4.754    -4.752     0.002     31.50
O(0)          0.000e+00
   O2              0.000e+00   0.000e+00   -50.164   -50.163     0.001     31.28

------------------------------Saturation indices-------------------------------

  Phase               SI** log IAP   log K(338 K, 600 atm)

  CH4(g)          -25.88    -29.24   -3.36  CH4
  CO2(g)            2.11     -0.04   -2.15  CO2
  H2(g)           -12.21    -15.62   -3.40  H2
  H2O(g)           -0.45     -0.01    0.44  H2O
  Halite           -5.77     -4.10    1.67  NaCl
  O2(g)           -46.79    -50.16   -3.37  O2

**For a gas, SI = log10(fugacity). Fugacity = pressure * phi / 1 atm.
  For ideal gases, phi = 1.

------------------
End of simulation.
------------------

------------------------------------
Reading input data for simulation 3.
------------------------------------

