   Input file: i4
  Output file: i4.out
Database file: ../database/phreeqc.dat

------------------
Reading data base.
------------------

	SOLUTION_MASTER_SPECIES
	SOLUTION_SPECIES
	PHASES
	EXCHANGE_MASTER_SPECIES
	EXCHANGE_SPECIES
	SURFACE_MASTER_SPECIES
	SURFACE_SPECIES
	RATES
	END
------------------------------------
Reading input data for simulation 1.
------------------------------------

	DATABASE ../database/phreeqc.dat
	SOLUTION 0
	 Na 2e3
	 S(6) 1e3 charge
	 Alkalinity 0
	 O(0) 0e-9
	 pH 7
	SOLUTION 1-11
	 pH 7 charge
	 O(0) 0e-9
	SELECTED_OUTPUT
	 high_precision
	END
-------------------------------------------
Beginning of initial solution calculations.
-------------------------------------------

Initial solution 0.	

-----------------------------Solution composition------------------------------

	Elements           Molality       Moles

	Na                2.000e+00   2.000e+00
	S(6)              1.000e+00   1.000e+00  Charge balance

----------------------------Description of solution----------------------------

                                       pH  =   7.000    
                                       pe  =   4.000    
       Specific Conductance (uS/cm, 25 oC) = 95583
                          Density (g/cm3)  =   1.11269
                        Activity of water  =   0.956
                           Ionic strength  =   2.214e+00
                       Mass of water (kg)  =   1.000e+00
                 Total alkalinity (eq/kg)  =  -5.384e-07
                    Total carbon (mol/kg)  =   0.000e+00
                       Total CO2 (mol/kg)  =   0.000e+00
                      Temperature (deg C)  =  25.00
                  Electrical balance (eq)  =   8.882e-16
 Percent error, 100*(Cat-|An|)/(Cat+|An|)  =   0.00
                               Iterations  =   7
                                  Total H  = 1.110124e+02
                                  Total O  = 5.950622e+01

----------------------------Distribution of species----------------------------

                                            Log       Log         Log     mole V
   Species          Molality    Activity  Molality  Activity     Gamma   cm3/mol

   OH-             1.849e-07   9.705e-08    -6.733    -7.013    -0.280     -0.18
   H+              1.382e-07   1.000e-07    -6.859    -7.000    -0.141      0.00
   H2O             5.551e+01   9.557e-01     1.744    -0.020     0.000     18.07
H(0)          8.505e-26
   H2              4.252e-26   7.079e-26   -25.371   -25.150     0.221     20.00
Na            2.000e+00
   Na+             1.607e+00   1.304e+00     0.206     0.115    -0.091      0.04
   NaSO4-          3.932e-01   4.249e-01    -0.405    -0.372     0.034     33.13
   NaOH            7.600e-18   1.265e-17   -17.119   -16.898     0.221     (0)  
O(0)          0.000e+00
   O2              0.000e+00   0.000e+00   -42.341   -42.119     0.221     35.00
S(6)          1.000e+00
   SO4-2           6.068e-01   6.503e-02    -0.217    -1.187    -0.970     16.94
   NaSO4-          3.932e-01   4.249e-01    -0.405    -0.372     0.034     33.13
   HSO4-           5.850e-07   6.322e-07    -6.233    -6.199     0.034     (0)  

------------------------------Saturation indices-------------------------------

	Phase               SI   log IAP   log K(298 K,   1 atm)

	H2(g)           -22.05    -25.15   -3.10  H2
	H2O(g)           -1.52     -0.02    1.50  H2O
	O2(g)           -39.23    -42.12   -2.89  O2


Initial solution 1.	

-----------------------------Solution composition------------------------------

	Elements           Molality       Moles

	Pure water     

----------------------------Description of solution----------------------------

                                       pH  =   6.997      Charge balance
                                       pe  =   4.000    
       Specific Conductance (uS/cm, 25 oC) = 0
                          Density (g/cm3)  =   0.99700
                        Activity of water  =   1.000
                           Ionic strength  =   1.008e-07
                       Mass of water (kg)  =   1.000e+00
                 Total alkalinity (eq/kg)  =  -4.103e-22
                    Total carbon (mol/kg)  =   0.000e+00
                       Total CO2 (mol/kg)  =   0.000e+00
                      Temperature (deg C)  =  25.00
                  Electrical balance (eq)  =   4.103e-22
 Percent error, 100*(Cat-|An|)/(Cat+|An|)  =   0.00
                               Iterations  =   3
                                  Total H  = 1.110124e+02
                                  Total O  = 5.550622e+01

----------------------------Distribution of species----------------------------

                                            Log       Log         Log     mole V
   Species          Molality    Activity  Molality  Activity     Gamma   cm3/mol

   H+              1.008e-07   1.008e-07    -6.997    -6.997    -0.000      0.00
   OH-             1.008e-07   1.008e-07    -6.997    -6.997    -0.000     -3.76
   H2O             5.551e+01   1.000e+00     1.744    -0.000     0.000     18.07
H(0)          1.438e-25
   H2              7.189e-26   7.189e-26   -25.143   -25.143     0.000     20.00
O(0)          0.000e+00
   O2              0.000e+00   0.000e+00   -42.093   -42.093     0.000     35.00

------------------------------Saturation indices-------------------------------

	Phase               SI   log IAP   log K(298 K,   1 atm)

	H2(g)           -22.04    -25.14   -3.10  H2
	H2O(g)           -1.50     -0.00    1.50  H2O
	O2(g)           -39.20    -42.09   -2.89  O2


------------------
End of simulation.
------------------

------------------------------------
Reading input data for simulation 2.
------------------------------------

	PRINT
	 reset false
WARNING: Cell-lengths were read for 1 cells. Last value is used till cell 10.
WARNING: No dispersivities were read; disp = 0 assumed.
