WARNING: Database file from DATABASE keyword is used; command line argument ignored.
   Input file: IllitisationCEC
  Output file: IllitisationCEC.out
Database file: ../database/llnl.dat

------------------
Reading data base.
------------------

	LLNL_AQUEOUS_MODEL_PARAMETERS
	NAMED_EXPRESSIONS
	SOLUTION_MASTER_SPECIES
	SOLUTION_SPECIES
	PHASES
	EXCHANGE_MASTER_SPECIES
	EXCHANGE_SPECIES
	SURFACE_MASTER_SPECIES
	SURFACE_SPECIES
	RATES
	END
------------------------------------
Reading input data for simulation 1.
------------------------------------

	DATABASE ../database/llnl.dat
	SELECTED_OUTPUT 101
	    file                IllitisationCEC_101.sel
	USER_PUNCH 101
	    headings Mu SC
	    start
	10 PUNCH STR_F$(MU, 20, 12)
	20 PUNCH STR_F$(SC, 20, 10)
	    end
	END
------------------
End of simulation.
------------------

------------------------------------
Reading input data for simulation 2.
------------------------------------

	SOLUTION
	END
-------------------------------------------
Beginning of initial solution calculations.
-------------------------------------------

Initial solution 1.	

-----------------------------Solution composition------------------------------

	Elements           Molality       Moles

	Pure water     

----------------------------Description of solution----------------------------

                                       pH  =   7.000    
                                       pe  =   4.000    
                        Activity of water  =   1.000
                 Ionic strength (mol/kgw)  =   9.823e-08
                       Mass of water (kg)  =   1.000e+00
                 Total alkalinity (eq/kg)  =  -3.654e-09
                         Temperature (°C)  =  25.00
                  Electrical balance (eq)  =   3.654e-09
 Percent error, 100*(Cat-|An|)/(Cat+|An|)  =   1.86
                               Iterations  =   0
                                  Total H  = 1.110507e+02
                                  Total O  = 5.552533e+01

----------------------------Distribution of species----------------------------

                                               Log       Log       Log    mole V
   Species          Molality    Activity  Molality  Activity     Gamma   cm³/mol

   H+              1.001e-07   1.000e-07    -7.000    -7.000    -0.000      0.00
   OH-             9.640e-08   9.636e-08    -7.016    -7.016    -0.000     (0)  
   H2O             5.553e+01   1.000e+00     1.744     0.000     0.000     (0)  
H(0)          1.587e-25
   H2              7.935e-26   7.935e-26   -25.100   -25.100     0.000     (0)  
O(0)          0.000e+00
   O2              0.000e+00   0.000e+00   -41.995   -41.995     0.000     (0)  

------------------------------Saturation indices-------------------------------

  Phase               SI** log IAP   log K(298 K,   1 atm)

  H2(g)           -22.00    -25.10   -3.10  H2
  H2O(g)           -1.59      0.00    1.59  H2O
  Ice              -0.14      0.00    0.14  H2O
  O2(g)           -39.10    -42.00   -2.89  O2

**For a gas, SI = log10(fugacity). Fugacity = pressure * phi / 1 atm.
  For ideal gases, phi = 1.

------------------
End of simulation.
------------------

------------------------------------
Reading input data for simulation 3.
------------------------------------

	SOLUTION_MASTER_SPECIES
	[A]  [A]       0.0     [A]        1
	[K]  [K]       0.0     [K]		39
	SOLUTION_SPECIES
	[K] = [K]
	log_k 0
	[A] = [A] 
	log_k 0
	PHASES
	Bentonite
	   -no_check 
ERROR: Expecting equation for phase Bentonite.
ERROR: Parsing equation.
ERROR:    -no_check 
	[A] = [A]
	log_k -30
ERROR: Equation has no equal sign.
	log_k-30
ERROR: Parsing equation.
ERROR: log_k -30
	Illite
	        K0.6Mg0.25Al1.8Al0.5Si3.5O10(OH)2 +8.0000 H+  =  + 0.2500 Mg++ + 0.6000 K+ + 2.3000 Al+++ + 3.5000 SiO2 + 5.0000 H2O
	        log_k           9.0260
		delta_h	-171.764	kJ/mol	# Calculated enthalpy of reaction	Illite
	        analytical_expression 2.6069e+001 -1.2553e-003 1.3670e+004 -2.0232e+001 -1.1204e+006
	Montmor-Na
	        Na.33Mg.33Al1.67Si4O10(OH)2 +6.0000 H+  =  + 0.3300 Mg++ + 0.3300 Na+ + 1.6700 Al+++ + 4.0000 H2O + 4.0000 SiO2
	        log_k           2.4844
		delta_h	-93.2165	kJ/mol	# Calculated enthalpy of reaction	Montmor-Na
	        analytical_expression 1.9601e+000 1.1342e-002 1.6051e+004 -1.4718e+001 -1.8160e+006
	Title TEST
	SOLUTION 1
	     temp      130#9.5
	    pH        8
	    pe        4
	    redox     pe
	    units     mg/kgw
	    density   1
	    K         2.6
	[K] 2.6
	    Na        25
	Si 7.5
	Fe(2) 3
	Mg 10
	Ca 48
	S 50
	Cl 5
	C 240
	    water    1 # kg
	RATES #Pytte
	Illitization
	start
	20  if (m <= 0) then goto 200
	60  rate =  (80800) *2.71828^(-117150/(8.314*TK))*(MOL("[K]")/MOL("Na+"))*(EQUI("Bentonite")/1)^5
	200 save rate * time
	end
	EQUILIBRIUM_PHASES 1
	    Bentonite   0 1#  RATES
	    Gibbsite 0 0
	    Quartz   0 0 
	    Illite   0 0
	KINETICS 1
	Illitization
	 formula Mg+2 0.25  K+ 2.3  Al+3 2.3 H2O 5 SiO2  3.5   [A] -1 #X -0.1
	steps 31557600000 in 30 steps# 1000 years
	INCREMENTAL_REACTIONS true
	EXCHANGE 1
	 X   Bentonite   equilibrium_phase   0.1
	    equilibrate with solution 1
	SELECTED_OUTPUT
	    file                 ILLITIZATION test.xls
	    totals               X Mg  Na  Al  Si  K  Cl
	    equilibrium_phases   Bentonite Gibbsite Quartz  Illite
	temperature          true
	END
-----
TITLE
-----

 TEST

ERROR: Phase not found in database, Bentonite.
ERROR: Mineral, Bentonite, related to exchanger, X, not found in Equilibrium_Phases 1
ERROR: Calculations terminating due to input errors.
Stopping.
