WARNING: Database file from DATABASE keyword is used; command line argument ignored.
   Input file: Int_vs_Don
  Output file: Int_vs_Don.out
Database file: ../database/phreeqc.dat

------------------
Reading data base.
------------------

	SOLUTION_MASTER_SPECIES
	SOLUTION_SPECIES
	PHASES
	EXCHANGE_MASTER_SPECIES
	EXCHANGE_SPECIES
	SURFACE_MASTER_SPECIES
	SURFACE_SPECIES
	MEAN_GAMMAS
	RATES
	END
------------------------------------
Reading input data for simulation 1.
------------------------------------

	DATABASE ../database/phreeqc.dat
	SELECTED_OUTPUT 101
	    file                 Int_vs_Don_101.sel
	USER_PUNCH 101
	    headings Mu SC
	    start
	10 PUNCH STR_F$(MU, 20, 12)
	20 PUNCH STR_F$(SC, 20, 10)
	    end
	SOLUTION_SPECIES
	Al+3 + H2O = AlOH+2 + H+
	        log_k   -50.0
	        delta_h 11.49   kcal
	Al+3 + 2 H2O = Al(OH)2+ + 2 H+
	        log_k   -100.1
	        delta_h 26.90   kcal
	Al+3 + 3 H2O = Al(OH)3 + 3 H+
	        log_k   -160.9
	        delta_h 39.89   kcal
	Al+3 + 4 H2O = Al(OH)4- + 4 H+
	        log_k   -220.7
	        delta_h 42.30   kcal
	SURFACE_MASTER_SPECIES
	 Su Su-
	SURFACE_SPECIES
	 Su- = Su-
	 log_k 0
	SOLUTION 1-2
	 pH 6.0
	 Na 1e2
	 Cl 1 charge
	SURFACE 1
	 Su 1e-2 1e5 1
	 equilibrate 1
	 donnan 1e-8
	SELECTED_OUTPUT
	 file Int_vs_Don.sel
	 reset false
	USER_PUNCH
	 heading reaction_step DL_type Na/mM dl_Na dl_Ca dl_Al edl_Cl edl_S K_Na\Ca K_Na_Al
	 start
	 10 dl_Ca = (edl("Ca", "Su") - tot("Ca") * edl("water", "Su")) * 2
	 12 dl_Al = (edl("Al", "Su") - tot("Al") * edl("water", "Su")) * 3
	 20 dl_Na = (edl("Na", "Su") - tot("Na") * edl("water", "Su"))
	 21 if (dl_Ca = 0 or tot("Na") = 0) then goto 60
	 22 bb_Ca = dl_Ca / (dl_Ca + dl_Na + dl_Al)
	 24 bb_Na = dl_Na / (dl_Ca + dl_Na + dl_Al)
	 25 bb_Al = dl_Al / (dl_Ca + dl_Na + dl_Al)
	 26 bb_Cl = 1 - (dl_Ca + dl_Na + dl_Al) / (mol("Su-") * tot("water"))
	 30 K_Na_Ca = bb_Na / bb_Ca^0.5 * tot("Ca")^0.5 / tot("Na")
	 40 print 'solution', cell_no, ' ( 1 is Donnan, 2 is integration)'
	 41 punch step_no
	 42 if cell_no = 1 then punch 'Donnan' else punch 'Integrated'
	 44 punch tot("Na")*1e3, dl_Na*1e3, dl_Ca*1e3, dl_Al*1e3, (edl("Cl", "Su")- tot("Cl")*edl("water", "Su"))*1e3, edl("S")
	 46 print '. CB =', dl_Ca + dl_Na + tot("Cl") * edl("water") - edl("Cl", "Su") - mol("Su-") * tot("water")
	 50 print 'K_Na\Ca (Su) =', K_Na_Ca, '. Na_DDl / Na0 =', edl("Na", "Su") / tot("Na"), 'f_Cl in DL charge =', bb_Cl
	 51 punch K_Na_Ca
	 52 if dl_Al = 0 then goto 60
	 54 K_Na_Al = bb_Na / bb_Al^(1/3) * tot("Al")^(1/3) / tot("Na")
	 56 print 'K_Na\Al (Su) =', K_Na_Al
	 58 punch K_Na_Al
	 60 end
	 end
	REACTION 1-2
	 Na -10 Ca 2 Al 2
	 1e-8 10*0.0020411
	INCREMENTAL_REACTIONS
	END
-------------------------------------------
Beginning of initial solution calculations.
-------------------------------------------

Initial solution 1.	

-----------------------------Solution composition------------------------------

	Elements           Molality       Moles

	Cl                1.000e-01   1.000e-01  Charge balance
	Na                1.000e-01   1.000e-01

----------------------------Description of solution----------------------------

                                       pH  =   6.000    
                                       pe  =   4.000    
      Specific Conductance (µS/cm,  25°C)  = 10609
                          Density (g/cm³)  =   1.00115
                               Volume (L)  =   1.00469
                        Viscosity (mPa s)  =   0.89854
                        Activity of water  =   0.997
                 Ionic strength (mol/kgw)  =   1.000e-01
                       Mass of water (kg)  =   1.000e+00
                 Total alkalinity (eq/kg)  =  -1.222e-06
                         Temperature (°C)  =  25.00
                  Electrical balance (eq)  =  -1.215e-15
 Percent error, 100*(Cat-|An|)/(Cat+|An|)  =  -0.00
                               Iterations  =  10
                                  Total H  = 1.110124e+02
                                  Total O  = 5.550622e+01

----------------------------Distribution of species----------------------------

                                               Log       Log       Log    mole V
   Species          Molality    Activity  Molality  Activity     Gamma   cm³/mol

   H+              1.212e-06   1.000e-06    -5.917    -6.000    -0.083      0.00
   OH-             1.324e-08   1.009e-08    -7.878    -7.996    -0.118     -3.73
   H2O             5.551e+01   9.966e-01     1.744    -0.001     0.000     18.07
Cl            1.000e-01
   Cl-             1.000e-01   7.666e-02    -1.000    -1.115    -0.115     18.34
   HCl             2.394e-08   2.641e-08    -7.621    -7.578     0.043     (0)  
H(0)          1.384e-23
   H2              6.918e-24   7.079e-24   -23.160   -23.150     0.010     28.61
Na            1.000e-01
   Na+             1.000e-01   7.851e-02    -1.000    -1.105    -0.105     -1.09
   NaOH            7.739e-20   7.919e-20   -19.111   -19.101     0.010     (0)  
O(0)          0.000e+00
   O2              0.000e+00   0.000e+00   -46.093   -46.083     0.010     30.40

------------------------------Saturation indices-------------------------------

  Phase               SI** log IAP   log K(298 K,   1 atm)

  H2(g)           -20.05    -23.15   -3.10  H2
  H2O(g)           -1.50     -0.00    1.50  H2O
  Halite           -3.79     -2.22    1.57  NaCl
  O2(g)           -43.19    -46.08   -2.89  O2

**For a gas, SI = log10(fugacity). Fugacity = pressure * phi / 1 atm.
  For ideal gases, phi = 1.

------------------------------------------------------
Beginning of initial surface-composition calculations.
------------------------------------------------------

Surface 1.	

Diffuse Double Layer Surface-Complexation Model

Su            
	 -4.592e-11  Surface + diffuse layer charge, eq
	 -1.000e-02  Surface charge, eq
	 -9.649e-03  sigma, C/m²
	 -1.322e-02  psi, V
	  5.145e-01  -F*psi/RT
	  1.673e+00  exp(-F*psi/RT)
	  1.000e+05  specific area, m²/g
	  1.000e+05  m² for   1.000e+00 g

	Water in diffuse layer: 1.000e+00 kg, 100.0% of total DDL-water.
		      viscosity: 0.89854 mPa s for DDL water.

	Total moles in diffuse layer (excluding water), Donnan calculation.
	Donnan Layer potential, psi_DL = -1.284e-03 V.
	Boltzmann factor, exp(-psi_DL * F / RT) = 1.051e+00 (= c_DL / c_free if z is +1).

	Element       	     Moles
	Cl            	  9.5126e-02
	H             	  1.3102e-06
	Na            	  1.0512e-01
	O             	  1.2599e-08

Su            
	  1.000e-02  moles
	                                   Mole                     Log
	Species               Moles    Fraction    Molality    Molality

	Su-               1.000e-02       1.000   1.000e-02      -2.000

-----------------------------------------
Beginning of batch-reaction calculations.
-----------------------------------------

Reaction step 1.

solution            1  ( 1 is Donnan, 2 is integration) 
. CB =  -6.7060e-08 
K_Na\Ca (Su) =   1.5613e+00 . Na_DDl / Na0 =   1.0512e+00 f_Cl in DL charge =   4.8751e-01 
K_Na\Al (Su) =   2.1940e+00 
Using solution 1.	
Using surface 1.	
Using reaction 1.	

Reaction 1.	

	  1.000e-08 moles of the following reaction have been added:

	                 Relative
	Reactant            moles

	Al                   2.00000
	Ca                   2.00000
	Na                 -10.00000

	                 Relative
	Element             moles
	Al                   2.00000
	Ca                   2.00000
	Na                 -10.00000

------------------------------Surface composition------------------------------

Diffuse Double Layer Surface-Complexation Model

Su            
	  1.218e-10  Surface + diffuse layer charge, eq
	 -1.000e-02  Surface charge, eq
	 -9.649e-03  sigma, C/m²
	 -1.322e-02  psi, V
	  5.145e-01  -F*psi/RT
	  1.673e+00  exp(-F*psi/RT)
	  1.000e+05  specific area, m²/g
	  1.000e+05  m² for   1.000e+00 g

	Water in diffuse layer: 1.000e+00 kg, 100.0% of total DDL-water.
		      viscosity: 0.89854 mPa s for DDL water.

	Total moles in diffuse layer (excluding water), Donnan calculation.
	Donnan Layer potential, psi_DL = -1.284e-03 V.
	Boltzmann factor, exp(-psi_DL * F / RT) = 1.051e+00 (= c_DL / c_free if z is +1).

	Element       	     Moles
	Al            	  1.0748e-08
	Ca            	  1.0499e-08
	Cl            	  9.5126e-02
	H             	  1.3102e-06
	Na            	  1.0512e-01
	O             	  1.2599e-08

Su            
	  1.000e-02  moles
	                                   Mole                     Log
	Species               Moles    Fraction    Molality    Molality

	Su-               1.000e-02       1.000   1.000e-02      -2.000

-----------------------------Solution composition------------------------------

	Elements           Molality       Moles

	Al                9.252e-09   9.252e-09
	Ca                9.501e-09   9.501e-09
	Cl                1.000e-01   1.000e-01
	Na                1.000e-01   1.000e-01

----------------------------Description of solution----------------------------

                                       pH  =   6.000      Charge balance
                                       pe  =  11.834      Adjusted to redox equilibrium
      Specific Conductance (µS/cm,  25°C)  = 10609
                          Density (g/cm³)  =   1.00115
                               Volume (L)  =   1.00469
                        Viscosity (mPa s)  =   0.89854
                        Activity of water  =   0.997
                 Ionic strength (mol/kgw)  =   1.000e-01
                       Mass of water (kg)  =   1.000e+00
                 Total alkalinity (eq/kg)  =  -1.222e-06
                         Temperature (°C)  =  25.00
                  Electrical balance (eq)  =  -4.593e-11
 Percent error, 100*(Cat-|An|)/(Cat+|An|)  =  -0.00
                               Iterations  =   0 (11 overall)
                                  Total H  = 1.110124e+02
                                  Total O  = 5.550622e+01

----------------------------Distribution of species----------------------------

                                               Log       Log       Log    mole V
   Species          Molality    Activity  Molality  Activity     Gamma   cm³/mol

   H+              1.212e-06   1.000e-06    -5.917    -6.000    -0.083      0.00
   OH-             1.324e-08   1.009e-08    -7.878    -7.996    -0.118     -3.73
   H2O             5.551e+01   9.966e-01     1.744    -0.001     0.000     18.07
Al            9.252e-09
   Al+3            9.252e-09   1.644e-09    -8.034    -8.784    -0.750    -41.11
   AlOH+2          0.000e+00   0.000e+00   -52.357   -52.785    -0.429     (0)  
   Al(OH)2+        0.000e+00   0.000e+00   -96.780   -96.887    -0.107     (0)  
   Al(OH)3         0.000e+00   0.000e+00  -151.698  -151.688     0.010     (0)  
   Al(OH)4-        0.000e+00   0.000e+00  -205.383  -205.490    -0.107     (0)  
Ca            9.501e-09
   Ca+2            9.501e-09   3.712e-09    -8.022    -8.430    -0.408    -17.43
   CaOH+           7.860e-16   6.140e-16   -15.105   -15.212    -0.107     (0)  
Cl            1.000e-01
   Cl-             1.000e-01   7.666e-02    -1.000    -1.115    -0.115     18.34
   HCl             2.394e-08   2.641e-08    -7.621    -7.578     0.043     (0)  
H(0)          2.968e-39
   H2              1.484e-39   1.518e-39   -38.829   -38.819     0.010     28.61
Na            1.000e-01
   Na+             1.000e-01   7.851e-02    -1.000    -1.105    -0.105     -1.09
   NaOH            7.739e-20   7.919e-20   -19.111   -19.101     0.010     (0)  
O(0)          3.510e-15
   O2              1.755e-15   1.796e-15   -14.756   -14.746     0.010     30.40

------------------------------Saturation indices-------------------------------

  Phase               SI** log IAP   log K(298 K,   1 atm)

  Al(OH)3(a)       -1.59      9.21   10.80  Al(OH)3
  Gibbsite          1.10      9.21    8.11  Al(OH)3
  H2(g)           -35.72    -38.82   -3.10  H2
  H2O(g)           -1.50     -0.00    1.50  H2O
  Halite           -3.79     -2.22    1.57  NaCl
  O2(g)           -11.85    -14.75   -2.89  O2

**For a gas, SI = log10(fugacity). Fugacity = pressure * phi / 1 atm.
  For ideal gases, phi = 1.

Reaction step 2.

solution            1  ( 1 is Donnan, 2 is integration) 
. CB =  -8.4764e-04 
K_Na\Ca (Su) =   1.4503e+00 . Na_DDl / Na0 =   1.0473e+00 f_Cl in DL charge =   4.5080e-01 
K_Na\Al (Su) =   1.9885e+00 
Using solution 1.	
Using surface 1.	
Using reaction 1.	

Reaction 1.	

	  2.041e-03 moles of the following reaction have been added:

	                 Relative
	Reactant            moles

	Al                   2.00000
	Ca                   2.00000
	Na                 -10.00000

	                 Relative
	Element             moles
	Al                   2.00000
	Ca                   2.00000
	Na                 -10.00000

------------------------------Surface composition------------------------------

Diffuse Double Layer Surface-Complexation Model

Su            
	  2.152e-10  Surface + diffuse layer charge, eq
	 -1.000e-02  Surface charge, eq
	 -9.649e-03  sigma, C/m²
	 -1.276e-02  psi, V
	  4.967e-01  -F*psi/RT
	  1.643e+00  exp(-F*psi/RT)
	  1.000e+05  specific area, m²/g
	  1.000e+05  m² for   1.000e+00 g

	Water in diffuse layer: 1.000e+00 kg, 100.0% of total DDL-water.
		      viscosity: 0.89858 mPa s for DDL water.

	Total moles in diffuse layer (excluding water), Donnan calculation.
	Donnan Layer potential, psi_DL = -1.187e-03 V.
	Boltzmann factor, exp(-psi_DL * F / RT) = 1.047e+00 (= c_DL / c_free if z is +1).

	Element       	     Moles
	Al            	  2.1824e-03
	Ca            	  2.1354e-03
	Cl            	  9.5310e-02
	H             	  1.3085e-06
	Na            	  9.4491e-02
	O             	  1.2920e-08

Su            
	  1.000e-02  moles
	                                   Mole                     Log
	Species               Moles    Fraction    Molality    Molality

	Su-               1.000e-02       1.000   1.000e-02      -2.000

-----------------------------Solution composition------------------------------

	Elements           Molality       Moles

	Al                1.900e-03   1.900e-03
	Ca                1.947e-03   1.947e-03
	Cl                9.982e-02   9.982e-02
	Na                9.022e-02   9.022e-02

----------------------------Description of solution----------------------------

                                       pH  =   6.000      Charge balance
                                       pe  =  -0.903      Adjusted to redox equilibrium
      Specific Conductance (µS/cm,  25°C)  = 10674
                          Density (g/cm³)  =   1.00115
                               Volume (L)  =   1.00459
                        Viscosity (mPa s)  =   0.89858
                        Activity of water  =   0.997
                 Ionic strength (mol/kgw)  =   1.075e-01
                       Mass of water (kg)  =   1.000e+00
                 Total alkalinity (eq/kg)  =  -1.225e-06
                         Temperature (°C)  =  25.00
                  Electrical balance (eq)  =   7.586e-11
 Percent error, 100*(Cat-|An|)/(Cat+|An|)  =   0.00
                               Iterations  =   0 (20 overall)
                                  Total H  = 1.110124e+02
                                  Total O  = 5.550622e+01

----------------------------Distribution of species----------------------------

                                               Log       Log       Log    mole V
   Species          Molality    Activity  Molality  Activity     Gamma   cm³/mol

   H+              1.215e-06   9.989e-07    -5.916    -6.000    -0.085      0.00
   OH-             1.336e-08   1.010e-08    -7.874    -7.996    -0.121     -3.71
   H2O             5.551e+01   9.967e-01     1.744    -0.001     0.000     18.07
Al            1.900e-03
   Al+3            1.900e-03   3.270e-04    -2.721    -3.485    -0.764    -41.08
   AlOH+2          0.000e+00   0.000e+00   -47.049   -47.486    -0.438     (0)  
   Al(OH)2+        0.000e+00   0.000e+00   -91.478   -91.587    -0.109     (0)  
   Al(OH)3         0.000e+00   0.000e+00  -146.399  -146.388     0.011     (0)  
   Al(OH)4-        0.000e+00   0.000e+00  -200.080  -200.189    -0.109     (0)  
Ca            1.947e-03
   Ca+2            1.947e-03   7.453e-04    -2.711    -3.128    -0.417    -17.41
   CaOH+           1.588e-10   1.234e-10    -9.799    -9.909    -0.109     (0)  
Cl            9.982e-02
   Cl-             9.982e-02   7.600e-02    -1.001    -1.119    -0.118     18.35
   HCl             2.354e-08   2.615e-08    -7.628    -7.582     0.046     (0)  
H(0)          8.801e-14
   H2              4.400e-14   4.511e-14   -13.357   -13.346     0.011     28.61
Na            9.022e-02
   Na+             9.022e-02   7.046e-02    -1.045    -1.152    -0.107     -1.08
   NaOH            6.942e-20   7.116e-20   -19.158   -19.148     0.011     (0)  
O(0)          0.000e+00
   O2              0.000e+00   0.000e+00   -65.702   -65.691     0.011     30.40

------------------------------Saturation indices-------------------------------

  Phase               SI** log IAP   log K(298 K,   1 atm)

  Al(OH)3(a)        3.71     14.51   10.80  Al(OH)3
  Gibbsite          6.40     14.51    8.11  Al(OH)3
  H2(g)           -10.24    -13.35   -3.10  H2
  H2O(g)           -1.50     -0.00    1.50  H2O
  Halite           -3.84     -2.27    1.57  NaCl
  O2(g)           -62.80    -65.69   -2.89  O2

**For a gas, SI = log10(fugacity). Fugacity = pressure * phi / 1 atm.
  For ideal gases, phi = 1.

Reaction step 3.

solution            1  ( 1 is Donnan, 2 is integration) 
. CB =  -1.5767e-03 
K_Na\Ca (Su) =   1.3600e+00 . Na_DDl / Na0 =   1.0439e+00 f_Cl in DL charge =   4.1922e-01 
K_Na\Al (Su) =   1.8252e+00 
Using solution 1.	
Using surface 1.	
Using reaction 1.	

Reaction 1.	

	  2.041e-03 moles of the following reaction have been added:

	                 Relative
	Reactant            moles

	Al                   2.00000
	Ca                   2.00000
	Na                 -10.00000

	                 Relative
	Element             moles
	Al                   2.00000
	Ca                   2.00000
	Na                 -10.00000

------------------------------Surface composition------------------------------

Diffuse Double Layer Surface-Complexation Model

Su            
	  1.933e-10  Surface + diffuse layer charge, eq
	 -1.000e-02  Surface charge, eq
	 -9.649e-03  sigma, C/m²
	 -1.234e-02  psi, V
	  4.804e-01  -F*psi/RT
	  1.617e+00  exp(-F*psi/RT)
	  1.000e+05  specific area, m²/g
	  1.000e+05  m² for   1.000e+00 g

	Water in diffuse layer: 1.000e+00 kg, 100.0% of total DDL-water.
		      viscosity: 0.89864 mPa s for DDL water.

	Total moles in diffuse layer (excluding water), Donnan calculation.
	Donnan Layer potential, psi_DL = -1.104e-03 V.
	Boltzmann factor, exp(-psi_DL * F / RT) = 1.044e+00 (= c_DL / c_free if z is +1).

	Element       	     Moles
	Al            	  4.3450e-03
	Ca            	  4.2575e-03
	Cl            	  9.5468e-02
	H             	  1.3071e-06
	Na            	  8.3916e-02
	O             	  1.3229e-08

Su            
	  1.000e-02  moles
	                                   Mole                     Log
	Species               Moles    Fraction    Molality    Molality

	Su-               1.000e-02       1.000   1.000e-02      -2.000

-----------------------------Solution composition------------------------------

	Elements           Molality       Moles

	Al                3.819e-03   3.819e-03
	Ca                3.907e-03   3.907e-03
	Cl                9.966e-02   9.966e-02
	Na                8.039e-02   8.039e-02

----------------------------Description of solution----------------------------

                                       pH  =   6.001      Charge balance
                                       pe  =  -1.098      Adjusted to redox equilibrium
      Specific Conductance (µS/cm,  25°C)  = 10702
                          Density (g/cm³)  =   1.00115
                               Volume (L)  =   1.00449
                        Viscosity (mPa s)  =   0.89864
                        Activity of water  =   0.997
                 Ionic strength (mol/kgw)  =   1.150e-01
                       Mass of water (kg)  =   1.000e+00
                 Total alkalinity (eq/kg)  =  -1.227e-06
                         Temperature (°C)  =  25.00
                  Electrical balance (eq)  =   2.911e-10
 Percent error, 100*(Cat-|An|)/(Cat+|An|)  =   0.00
                               Iterations  =   0 (9 overall)
                                  Total H  = 1.110124e+02
                                  Total O  = 5.550622e+01

----------------------------Distribution of species----------------------------

                                               Log       Log       Log    mole V
   Species          Molality    Activity  Molality  Activity     Gamma   cm³/mol

   H+              1.217e-06   9.977e-07    -5.915    -6.001    -0.086      0.00
   OH-             1.347e-08   1.011e-08    -7.871    -7.995    -0.124     -3.69
   H2O             5.551e+01   9.968e-01     1.744    -0.001     0.000     18.07
Al            3.819e-03
   Al+3            3.819e-03   6.377e-04    -2.418    -3.195    -0.777    -41.05
   AlOH+2          0.000e+00   0.000e+00   -46.749   -47.196    -0.446     (0)  
   Al(OH)2+        0.000e+00   0.000e+00   -91.185   -91.296    -0.112     (0)  
   Al(OH)3         0.000e+00   0.000e+00  -146.108  -146.097     0.012     (0)  
   Al(OH)4-        0.000e+00   0.000e+00  -199.785  -199.897    -0.112     (0)  
Ca            3.907e-03
   Ca+2            3.907e-03   1.467e-03    -2.408    -2.834    -0.425    -17.39
   CaOH+           3.145e-10   2.432e-10    -9.502    -9.614    -0.112     (0)  
Cl            9.966e-02
   Cl-             9.966e-02   7.539e-02    -1.001    -1.123    -0.121     18.36
   HCl             2.315e-08   2.591e-08    -7.635    -7.587     0.049     (0)  
H(0)          2.160e-13
   H2              1.080e-13   1.109e-13   -12.966   -12.955     0.012     28.61
Na            8.039e-02
   Na+             8.039e-02   6.247e-02    -1.095    -1.204    -0.109     -1.06
   NaOH            6.152e-20   6.317e-20   -19.211   -19.199     0.012     (0)  
O(0)          0.000e+00
   O2              0.000e+00   0.000e+00   -66.484   -66.473     0.012     30.40

------------------------------Saturation indices-------------------------------

  Phase               SI** log IAP   log K(298 K,   1 atm)

  Al(OH)3(a)        4.00     14.80   10.80  Al(OH)3
  Gibbsite          6.69     14.80    8.11  Al(OH)3
  H2(g)            -9.85    -12.95   -3.10  H2
  H2O(g)           -1.50     -0.00    1.50  H2O
  Halite           -3.90     -2.33    1.57  NaCl
  O2(g)           -63.58    -66.47   -2.89  O2

**For a gas, SI = log10(fugacity). Fugacity = pressure * phi / 1 atm.
  For ideal gases, phi = 1.

Reaction step 4.

solution            1  ( 1 is Donnan, 2 is integration) 
. CB =  -2.2105e-03 
K_Na\Ca (Su) =   1.2847e+00 . Na_DDl / Na0 =   1.0410e+00 f_Cl in DL charge =   3.9176e-01 
K_Na\Al (Su) =   1.6917e+00 
Using solution 1.	
Using surface 1.	
Using reaction 1.	

Reaction 1.	

	  2.041e-03 moles of the following reaction have been added:

	                 Relative
	Reactant            moles

	Al                   2.00000
	Ca                   2.00000
	Na                 -10.00000

	                 Relative
	Element             moles
	Al                   2.00000
	Ca                   2.00000
	Na                 -10.00000

------------------------------Surface composition------------------------------

Diffuse Double Layer Surface-Complexation Model

Su            
	  9.510e-13  Surface + diffuse layer charge, eq
	 -1.000e-02  Surface charge, eq
	 -9.649e-03  sigma, C/m²
	 -1.196e-02  psi, V
	  4.655e-01  -F*psi/RT
	  1.593e+00  exp(-F*psi/RT)
	  1.000e+05  specific area, m²/g
	  1.000e+05  m² for   1.000e+00 g

	Water in diffuse layer: 1.000e+00 kg, 100.0% of total DDL-water.
		      viscosity: 0.89873 mPa s for DDL water.

	Total moles in diffuse layer (excluding water), Donnan calculation.
	Donnan Layer potential, psi_DL = -1.032e-03 V.
	Boltzmann factor, exp(-psi_DL * F / RT) = 1.041e+00 (= c_DL / c_free if z is +1).

	Element       	     Moles
	Al            	  6.4917e-03
	Ca            	  6.3691e-03
	Cl            	  9.5605e-02
	H             	  1.3060e-06
	Na            	  7.3390e-02
	O             	  1.3528e-08

Su            
	  1.000e-02  moles
	                                   Mole                     Log
	Species               Moles    Fraction    Molality    Molality

	Su-               1.000e-02       1.000   1.000e-02      -2.000

-----------------------------Solution composition------------------------------

	Elements           Molality       Moles

	Al                5.755e-03   5.755e-03
	Ca                5.878e-03   5.878e-03
	Cl                9.952e-02   9.952e-02
	Na                7.050e-02   7.050e-02

----------------------------Description of solution----------------------------

                                       pH  =   6.002      Charge balance
                                       pe  =  -1.517      Adjusted to redox equilibrium
      Specific Conductance (µS/cm,  25°C)  = 10701
                          Density (g/cm³)  =   1.00115
                               Volume (L)  =   1.00438
                        Viscosity (mPa s)  =   0.89873
                        Activity of water  =   0.997
                 Ionic strength (mol/kgw)  =   1.227e-01
                       Mass of water (kg)  =   1.000e+00
                 Total alkalinity (eq/kg)  =  -1.228e-06
                         Temperature (°C)  =  25.00
                  Electrical balance (eq)  =   4.844e-10
 Percent error, 100*(Cat-|An|)/(Cat+|An|)  =   0.00
                               Iterations  =   0 (9 overall)
                                  Total H  = 1.110124e+02
                                  Total O  = 5.550622e+01

----------------------------Distribution of species----------------------------

                                               Log       Log       Log    mole V
   Species          Molality    Activity  Molality  Activity     Gamma   cm³/mol

   H+              1.220e-06   9.965e-07    -5.914    -6.002    -0.088      0.00
   OH-             1.358e-08   1.013e-08    -7.867    -7.995    -0.127     -3.67
   H2O             5.551e+01   9.969e-01     1.744    -0.001     0.000     18.07
Al            5.755e-03
   Al+3            5.755e-03   9.337e-04    -2.240    -3.030    -0.790    -41.03
   AlOH+2          0.000e+00   0.000e+00   -46.576   -47.030    -0.454     (0)  
   Al(OH)2+        0.000e+00   0.000e+00   -91.016   -91.129    -0.114     (0)  
   Al(OH)3         0.000e+00   0.000e+00  -145.942  -145.929     0.012     (0)  
   Al(OH)4-        0.000e+00   0.000e+00  -199.616  -199.729    -0.114     (0)  
Ca            5.878e-03
   Ca+2            5.878e-03   2.167e-03    -2.231    -2.664    -0.433    -17.37
   CaOH+           4.672e-10   3.598e-10    -9.330    -9.444    -0.114     (0)  
Cl            9.952e-02
   Cl-             9.952e-02   7.482e-02    -1.002    -1.126    -0.124     18.37
   HCl             2.277e-08   2.568e-08    -7.643    -7.590     0.052     (0)  
H(0)          1.477e-12
   H2              7.387e-13   7.599e-13   -12.132   -12.119     0.012     28.61
Na            7.050e-02
   Na+             7.050e-02   5.454e-02    -1.152    -1.263    -0.112     -1.05
   NaOH            5.368e-20   5.522e-20   -19.270   -19.258     0.012     (0)  
O(0)          0.000e+00
   O2              0.000e+00   0.000e+00   -68.156   -68.144     0.012     30.40

------------------------------Saturation indices-------------------------------

  Phase               SI** log IAP   log K(298 K,   1 atm)

  Al(OH)3(a)        4.17     14.97   10.80  Al(OH)3
  Gibbsite          6.86     14.97    8.11  Al(OH)3
  H2(g)            -9.02    -12.12   -3.10  H2
  H2O(g)           -1.50     -0.00    1.50  H2O
  Halite           -3.96     -2.39    1.57  NaCl
  O2(g)           -65.25    -68.14   -2.89  O2

**For a gas, SI = log10(fugacity). Fugacity = pressure * phi / 1 atm.
  For ideal gases, phi = 1.

Reaction step 5.

solution            1  ( 1 is Donnan, 2 is integration) 
. CB =  -2.7665e-03 
K_Na\Ca (Su) =   1.2206e+00 . Na_DDl / Na0 =   1.0384e+00 f_Cl in DL charge =   3.6767e-01 
K_Na\Al (Su) =   1.5802e+00 
Using solution 1.	
Using surface 1.	
Using reaction 1.	

Reaction 1.	

	  2.041e-03 moles of the following reaction have been added:

	                 Relative
	Reactant            moles

	Al                   2.00000
	Ca                   2.00000
	Na                 -10.00000

	                 Relative
	Element             moles
	Al                   2.00000
	Ca                   2.00000
	Na                 -10.00000

------------------------------Surface composition------------------------------

Diffuse Double Layer Surface-Complexation Model

Su            
	  6.534e-10  Surface + diffuse layer charge, eq
	 -1.000e-02  Surface charge, eq
	 -9.649e-03  sigma, C/m²
	 -1.161e-02  psi, V
	  4.517e-01  -F*psi/RT
	  1.571e+00  exp(-F*psi/RT)
	  1.000e+05  specific area, m²/g
	  1.000e+05  m² for   1.000e+00 g

	Water in diffuse layer: 1.000e+00 kg, 100.0% of total DDL-water.
		      viscosity: 0.89886 mPa s for DDL water.

	Total moles in diffuse layer (excluding water), Donnan calculation.
	Donnan Layer potential, psi_DL = -9.683e-04 V.
	Boltzmann factor, exp(-psi_DL * F / RT) = 1.038e+00 (= c_DL / c_free if z is +1).

	Element       	     Moles
	Al            	  8.6255e-03
	Ca            	  8.4720e-03
	Cl            	  9.5725e-02
	H             	  1.3050e-06
	Na            	  6.2904e-02
	O             	  1.3817e-08

Su            
	  1.000e-02  moles
	                                   Mole                     Log
	Species               Moles    Fraction    Molality    Molality

	Su-               1.000e-02       1.000   1.000e-02      -2.000

-----------------------------Solution composition------------------------------

	Elements           Molality       Moles

	Al                7.703e-03   7.703e-03
	Ca                7.857e-03   7.857e-03
	Cl                9.940e-02   9.940e-02
	Na                6.058e-02   6.058e-02

----------------------------Description of solution----------------------------

                                       pH  =   6.002      Charge balance
                                       pe  =  -1.527      Adjusted to redox equilibrium
      Specific Conductance (µS/cm,  25°C)  = 10677
                          Density (g/cm³)  =   1.00116
                               Volume (L)  =   1.00428
                        Viscosity (mPa s)  =   0.89886
                        Activity of water  =   0.997
                 Ionic strength (mol/kgw)  =   1.304e-01
                       Mass of water (kg)  =   1.000e+00
                 Total alkalinity (eq/kg)  =  -1.230e-06
                         Temperature (°C)  =  25.00
                  Electrical balance (eq)  =   4.854e-10
 Percent error, 100*(Cat-|An|)/(Cat+|An|)  =   0.00
                               Iterations  =   0 (8 overall)
                                  Total H  = 1.110124e+02
                                  Total O  = 5.550622e+01

----------------------------Distribution of species----------------------------

                                               Log       Log       Log    mole V
   Species          Molality    Activity  Molality  Activity     Gamma   cm³/mol

   H+              1.222e-06   9.953e-07    -5.913    -6.002    -0.089      0.00
   OH-             1.368e-08   1.014e-08    -7.864    -7.994    -0.130     -3.66
   H2O             5.551e+01   9.970e-01     1.744    -0.001     0.000     18.07
Al            7.703e-03
   Al+3            7.703e-03   1.216e-03    -2.113    -2.915    -0.802    -41.00
   AlOH+2          0.000e+00   0.000e+00   -46.453   -46.914    -0.461     (0)  
   Al(OH)2+        0.000e+00   0.000e+00   -90.898   -91.013    -0.115     (0)  
   Al(OH)3         0.000e+00   0.000e+00  -145.826  -145.813     0.013     (0)  
   Al(OH)4-        0.000e+00   0.000e+00  -199.497  -199.612    -0.115     (0)  
Ca            7.857e-03
   Ca+2            7.857e-03   2.847e-03    -2.105    -2.546    -0.441    -17.35
   CaOH+           6.173e-10   4.733e-10    -9.210    -9.325    -0.115     (0)  
Cl            9.940e-02
   Cl-             9.940e-02   7.428e-02    -1.003    -1.129    -0.127     18.38
   HCl             2.241e-08   2.547e-08    -7.649    -7.594     0.055     (0)  
H(0)          1.542e-12
   H2              7.710e-13   7.945e-13   -12.113   -12.100     0.013     28.61
Na            6.058e-02
   Na+             6.058e-02   4.666e-02    -1.218    -1.331    -0.113     -1.04
   NaOH            4.591e-20   4.731e-20   -19.338   -19.325     0.013     (0)  
O(0)          0.000e+00
   O2              0.000e+00   0.000e+00   -68.196   -68.183     0.013     30.40

------------------------------Saturation indices-------------------------------

  Phase               SI** log IAP   log K(298 K,   1 atm)

  Al(OH)3(a)        4.29     15.09   10.80  Al(OH)3
  Gibbsite          6.98     15.09    8.11  Al(OH)3
  H2(g)            -9.00    -12.10   -3.10  H2
  H2O(g)           -1.50     -0.00    1.50  H2O
  Halite           -4.03     -2.46    1.57  NaCl
  O2(g)           -65.29    -68.18   -2.89  O2

**For a gas, SI = log10(fugacity). Fugacity = pressure * phi / 1 atm.
  For ideal gases, phi = 1.

Reaction step 6.

solution            1  ( 1 is Donnan, 2 is integration) 
. CB =  -3.2581e-03 
K_Na\Ca (Su) =   1.1653e+00 . Na_DDl / Na0 =   1.0361e+00 f_Cl in DL charge =   3.4637e-01 
K_Na\Al (Su) =   1.4854e+00 
Using solution 1.	
Using surface 1.	
Using reaction 1.	

Reaction 1.	

	  2.041e-03 moles of the following reaction have been added:

	                 Relative
	Reactant            moles

	Al                   2.00000
	Ca                   2.00000
	Na                 -10.00000

	                 Relative
	Element             moles
	Al                   2.00000
	Ca                   2.00000
	Na                 -10.00000

------------------------------Surface composition------------------------------

Diffuse Double Layer Surface-Complexation Model

Su            
	  2.165e-10  Surface + diffuse layer charge, eq
	 -1.000e-02  Surface charge, eq
	 -9.649e-03  sigma, C/m²
	 -1.128e-02  psi, V
	  4.391e-01  -F*psi/RT
	  1.551e+00  exp(-F*psi/RT)
	  1.000e+05  specific area, m²/g
	  1.000e+05  m² for   1.000e+00 g

	Water in diffuse layer: 1.000e+00 kg, 100.0% of total DDL-water.
		      viscosity: 0.89905 mPa s for DDL water.

	Total moles in diffuse layer (excluding water), Donnan calculation.
	Donnan Layer potential, psi_DL = -9.122e-04 V.
	Boltzmann factor, exp(-psi_DL * F / RT) = 1.036e+00 (= c_DL / c_free if z is +1).

	Element       	     Moles
	Al            	  1.0749e-02
	Ca            	  1.0568e-02
	Cl            	  9.5832e-02
	H             	  1.3042e-06
	Na            	  5.2450e-02
	O             	  1.4097e-08

Su            
	  1.000e-02  moles
	                                   Mole                     Log
	Species               Moles    Fraction    Molality    Molality

	Su-               1.000e-02       1.000   1.000e-02      -2.000

-----------------------------Solution composition------------------------------

	Elements           Molality       Moles

	Al                9.663e-03   9.663e-03
	Ca                9.843e-03   9.843e-03
	Cl                9.930e-02   9.930e-02
	Na                5.062e-02   5.062e-02

----------------------------Description of solution----------------------------

                                       pH  =   6.003      Charge balance
                                       pe  =  -1.532      Adjusted to redox equilibrium
      Specific Conductance (µS/cm,  25°C)  = 10634
                          Density (g/cm³)  =   1.00116
                               Volume (L)  =   1.00417
                        Viscosity (mPa s)  =   0.89905
                        Activity of water  =   0.997
                 Ionic strength (mol/kgw)  =   1.381e-01
                       Mass of water (kg)  =   1.000e+00
                 Total alkalinity (eq/kg)  =  -1.231e-06
                         Temperature (°C)  =  25.00
                  Electrical balance (eq)  =   1.139e-09
 Percent error, 100*(Cat-|An|)/(Cat+|An|)  =   0.00
                               Iterations  =   0 (8 overall)
                                  Total H  = 1.110124e+02
                                  Total O  = 5.550622e+01

----------------------------Distribution of species----------------------------

                                               Log       Log       Log    mole V
   Species          Molality    Activity  Molality  Activity     Gamma   cm³/mol

   H+              1.224e-06   9.940e-07    -5.912    -6.003    -0.090      0.00
   OH-             1.379e-08   1.015e-08    -7.861    -7.993    -0.133     -3.64
   H2O             5.551e+01   9.971e-01     1.744    -0.001     0.000     18.07
Al            9.663e-03
   Al+3            9.663e-03   1.487e-03    -2.015    -2.828    -0.813    -40.98
   AlOH+2          0.000e+00   0.000e+00   -46.358   -46.826    -0.468     (0)  
   Al(OH)2+        0.000e+00   0.000e+00   -90.808   -90.925    -0.117     (0)  
   Al(OH)3         0.000e+00   0.000e+00  -145.738  -145.724     0.014     (0)  
   Al(OH)4-        0.000e+00   0.000e+00  -199.405  -199.522    -0.117     (0)  
Ca            9.843e-03
   Ca+2            9.843e-03   3.508e-03    -2.007    -2.455    -0.448    -17.33
   CaOH+           7.648e-10   5.841e-10    -9.116    -9.234    -0.117     (0)  
Cl            9.930e-02
   Cl-             9.930e-02   7.378e-02    -1.003    -1.132    -0.129     18.39
   HCl             2.207e-08   2.526e-08    -7.656    -7.598     0.059     (0)  
H(0)          1.569e-12
   H2              7.844e-13   8.097e-13   -12.105   -12.092     0.014     28.61
Na            5.062e-02
   Na+             5.062e-02   3.883e-02    -1.296    -1.411    -0.115     -1.02
   NaOH            3.819e-20   3.942e-20   -19.418   -19.404     0.014     (0)  
O(0)          0.000e+00
   O2              0.000e+00   0.000e+00   -68.213   -68.199     0.014     30.40

------------------------------Saturation indices-------------------------------

  Phase               SI** log IAP   log K(298 K,   1 atm)

  Al(OH)3(a)        4.38     15.18   10.80  Al(OH)3
  Gibbsite          7.07     15.18    8.11  Al(OH)3
  H2(g)            -8.99    -12.09   -3.10  H2
  H2O(g)           -1.50     -0.00    1.50  H2O
  Halite           -4.11     -2.54    1.57  NaCl
  O2(g)           -65.31    -68.20   -2.89  O2

**For a gas, SI = log10(fugacity). Fugacity = pressure * phi / 1 atm.
  For ideal gases, phi = 1.

Reaction step 7.

solution            1  ( 1 is Donnan, 2 is integration) 
. CB =  -3.6959e-03 
K_Na\Ca (Su) =   1.1168e+00 . Na_DDl / Na0 =   1.0341e+00 f_Cl in DL charge =   3.2740e-01 
K_Na\Al (Su) =   1.4036e+00 
Using solution 1.	
Using surface 1.	
Using reaction 1.	

Reaction 1.	

	  2.041e-03 moles of the following reaction have been added:

	                 Relative
	Reactant            moles

	Al                   2.00000
	Ca                   2.00000
	Na                 -10.00000

	                 Relative
	Element             moles
	Al                   2.00000
	Ca                   2.00000
	Na                 -10.00000

------------------------------Surface composition------------------------------

Diffuse Double Layer Surface-Complexation Model

Su            
	  1.247e-10  Surface + diffuse layer charge, eq
	 -1.000e-02  Surface charge, eq
	 -9.649e-03  sigma, C/m²
	 -1.098e-02  psi, V
	  4.274e-01  -F*psi/RT
	  1.533e+00  exp(-F*psi/RT)
	  1.000e+05  specific area, m²/g
	  1.000e+05  m² for   1.000e+00 g

	Water in diffuse layer: 1.000e+00 kg, 100.0% of total DDL-water.
		      viscosity: 0.89931 mPa s for DDL water.

	Total moles in diffuse layer (excluding water), Donnan calculation.
	Donnan Layer potential, psi_DL = -8.622e-04 V.
	Boltzmann factor, exp(-psi_DL * F / RT) = 1.034e+00 (= c_DL / c_free if z is +1).

	Element       	     Moles
	Al            	  1.2863e-02
	Ca            	  1.2657e-02
	Cl            	  9.5927e-02
	H             	  1.3035e-06
	Na            	  4.2023e-02
	O             	  1.4368e-08

Su            
	  1.000e-02  moles
	                                   Mole                     Log
	Species               Moles    Fraction    Molality    Molality

	Su-               1.000e-02       1.000   1.000e-02      -2.000

-----------------------------Solution composition------------------------------

	Elements           Molality       Moles

	Al                1.163e-02   1.163e-02
	Ca                1.184e-02   1.184e-02
	Cl                9.920e-02   9.920e-02
	Na                4.064e-02   4.064e-02

----------------------------Description of solution----------------------------

                                       pH  =   6.003      Charge balance
                                       pe  =  -1.534      Adjusted to redox equilibrium
      Specific Conductance (µS/cm,  25°C)  = 10576
                          Density (g/cm³)  =   1.00117
                               Volume (L)  =   1.00407
                        Viscosity (mPa s)  =   0.89931
                        Activity of water  =   0.997
                 Ionic strength (mol/kgw)  =   1.459e-01
                       Mass of water (kg)  =   1.000e+00
                 Total alkalinity (eq/kg)  =  -1.233e-06
                         Temperature (°C)  =  25.00
                  Electrical balance (eq)  =   1.355e-09
 Percent error, 100*(Cat-|An|)/(Cat+|An|)  =   0.00
                               Iterations  =   0 (8 overall)
                                  Total H  = 1.110124e+02
                                  Total O  = 5.550622e+01

----------------------------Distribution of species----------------------------

                                               Log       Log       Log    mole V
   Species          Molality    Activity  Molality  Activity     Gamma   cm³/mol

   H+              1.226e-06   9.928e-07    -5.912    -6.003    -0.091      0.00
   OH-             1.389e-08   1.017e-08    -7.857    -7.993    -0.135     -3.62
   H2O             5.551e+01   9.972e-01     1.744    -0.001     0.000     18.07
Al            1.163e-02
   Al+3            1.163e-02   1.746e-03    -1.934    -2.758    -0.823    -40.95
   AlOH+2          0.000e+00   0.000e+00   -46.281   -46.756    -0.475     (0)  
   Al(OH)2+        0.000e+00   0.000e+00   -90.735   -90.854    -0.119     (0)  
   Al(OH)3         0.000e+00   0.000e+00  -145.667  -145.652     0.015     (0)  
   Al(OH)4-        0.000e+00   0.000e+00  -199.331  -199.450    -0.119     (0)  
Ca            1.184e-02
   Ca+2            1.184e-02   4.153e-03    -1.927    -2.382    -0.455    -17.32
   CaOH+           9.099e-10   6.924e-10    -9.041    -9.160    -0.119     (0)  
Cl            9.920e-02
   Cl-             9.920e-02   7.331e-02    -1.003    -1.135    -0.131     18.40
   HCl             2.173e-08   2.507e-08    -7.663    -7.601     0.062     (0)  
H(0)          1.576e-12
   H2              7.880e-13   8.149e-13   -12.103   -12.089     0.015     28.61
Na            4.064e-02
   Na+             4.064e-02   3.105e-02    -1.391    -1.508    -0.117     -1.01
   NaOH            3.052e-20   3.157e-20   -19.515   -19.501     0.015     (0)  
O(0)          0.000e+00
   O2              0.000e+00   0.000e+00   -68.219   -68.205     0.015     30.40

------------------------------Saturation indices-------------------------------

  Phase               SI** log IAP   log K(298 K,   1 atm)

  Al(OH)3(a)        4.45     15.25   10.80  Al(OH)3
  Gibbsite          7.14     15.25    8.11  Al(OH)3
  H2(g)            -8.99    -12.09   -3.10  H2
  H2O(g)           -1.50     -0.00    1.50  H2O
  Halite           -4.21     -2.64    1.57  NaCl
  O2(g)           -65.31    -68.20   -2.89  O2

**For a gas, SI = log10(fugacity). Fugacity = pressure * phi / 1 atm.
  For ideal gases, phi = 1.

Reaction step 8.

solution            1  ( 1 is Donnan, 2 is integration) 
. CB =  -4.0882e-03 
K_Na\Ca (Su) =   1.0739e+00 . Na_DDl / Na0 =   1.0323e+00 f_Cl in DL charge =   3.1039e-01 
K_Na\Al (Su) =   1.3322e+00 
Using solution 1.	
Using surface 1.	
Using reaction 1.	

Reaction 1.	

	  2.041e-03 moles of the following reaction have been added:

	                 Relative
	Reactant            moles

	Al                   2.00000
	Ca                   2.00000
	Na                 -10.00000

	                 Relative
	Element             moles
	Al                   2.00000
	Ca                   2.00000
	Na                 -10.00000

------------------------------Surface composition------------------------------

Diffuse Double Layer Surface-Complexation Model

Su            
	  1.272e-10  Surface + diffuse layer charge, eq
	 -1.000e-02  Surface charge, eq
	 -9.649e-03  sigma, C/m²
	 -1.070e-02  psi, V
	  4.165e-01  -F*psi/RT
	  1.517e+00  exp(-F*psi/RT)
	  1.000e+05  specific area, m²/g
	  1.000e+05  m² for   1.000e+00 g

	Water in diffuse layer: 1.000e+00 kg, 100.0% of total DDL-water.
		      viscosity: 0.89967 mPa s for DDL water.

	Total moles in diffuse layer (excluding water), Donnan calculation.
	Donnan Layer potential, psi_DL = -8.174e-04 V.
	Boltzmann factor, exp(-psi_DL * F / RT) = 1.032e+00 (= c_DL / c_free if z is +1).

	Element       	     Moles
	Al            	  1.4969e-02
	Ca            	  1.4742e-02
	Cl            	  9.6012e-02
	H             	  1.3030e-06
	Na            	  3.1619e-02
	O             	  1.4633e-08

Su            
	  1.000e-02  moles
	                                   Mole                     Log
	Species               Moles    Fraction    Molality    Molality

	Su-               1.000e-02       1.000   1.000e-02      -2.000

-----------------------------Solution composition------------------------------

	Elements           Molality       Moles

	Al                1.361e-02   1.361e-02
	Ca                1.383e-02   1.383e-02
	Cl                9.912e-02   9.912e-02
	Na                3.063e-02   3.063e-02

----------------------------Description of solution----------------------------

                                       pH  =   6.004      Charge balance
                                       pe  =  -1.535      Adjusted to redox equilibrium
      Specific Conductance (µS/cm,  25°C)  = 10502
                          Density (g/cm³)  =   1.00117
                               Volume (L)  =   1.00396
                        Viscosity (mPa s)  =   0.89967
                        Activity of water  =   0.997
                 Ionic strength (mol/kgw)  =   1.538e-01
                       Mass of water (kg)  =   1.000e+00
                 Total alkalinity (eq/kg)  =  -1.234e-06
                         Temperature (°C)  =  25.00
                  Electrical balance (eq)  =   1.480e-09
 Percent error, 100*(Cat-|An|)/(Cat+|An|)  =   0.00
                               Iterations  =   0 (8 overall)
                                  Total H  = 1.110124e+02
                                  Total O  = 5.550622e+01

----------------------------Distribution of species----------------------------

                                               Log       Log       Log    mole V
   Species          Molality    Activity  Molality  Activity     Gamma   cm³/mol

   H+              1.227e-06   9.915e-07    -5.911    -6.004    -0.093      0.00
   OH-             1.398e-08   1.018e-08    -7.854    -7.992    -0.138     -3.60
   H2O             5.551e+01   9.973e-01     1.744    -0.001     0.000     18.07
Al            1.361e-02
   Al+3            1.361e-02   1.996e-03    -1.866    -2.700    -0.834    -40.93
   AlOH+2          0.000e+00   0.000e+00   -46.217   -46.697    -0.481     (0)  
   Al(OH)2+        0.000e+00   0.000e+00   -90.675   -90.795    -0.120     (0)  
   Al(OH)3         0.000e+00   0.000e+00  -145.608  -145.592     0.015     (0)  
   Al(OH)4-        0.000e+00   0.000e+00  -199.270  -199.390    -0.120     (0)  
Ca            1.383e-02
   Ca+2            1.383e-02   4.783e-03    -1.859    -2.320    -0.461    -17.30
   CaOH+           1.053e-09   7.984e-10    -8.978    -9.098    -0.120     (0)  
Cl            9.912e-02
   Cl-             9.912e-02   7.286e-02    -1.004    -1.138    -0.134     18.41
   HCl             2.141e-08   2.489e-08    -7.669    -7.604     0.065     (0)  
H(0)          1.581e-12
   H2              7.904e-13   8.188e-13   -12.102   -12.087     0.015     28.61
Na            3.063e-02
   Na+             3.063e-02   2.332e-02    -1.514    -1.632    -0.118     -1.00
   NaOH            2.291e-20   2.374e-20   -19.640   -19.625     0.015     (0)  
O(0)          0.000e+00
   O2              0.000e+00   0.000e+00   -68.224   -68.209     0.015     30.40

------------------------------Saturation indices-------------------------------

  Phase               SI** log IAP   log K(298 K,   1 atm)

  Al(OH)3(a)        4.51     15.31   10.80  Al(OH)3
  Gibbsite          7.20     15.31    8.11  Al(OH)3
  H2(g)            -8.99    -12.09   -3.10  H2
  H2O(g)           -1.50     -0.00    1.50  H2O
  Halite           -4.34     -2.77    1.57  NaCl
  O2(g)           -65.32    -68.21   -2.89  O2

**For a gas, SI = log10(fugacity). Fugacity = pressure * phi / 1 atm.
  For ideal gases, phi = 1.

Reaction step 9.

solution            1  ( 1 is Donnan, 2 is integration) 
. CB =  -4.4418e-03 
K_Na\Ca (Su) =   1.0356e+00 . Na_DDl / Na0 =   1.0307e+00 f_Cl in DL charge =   2.9507e-01 
K_Na\Al (Su) =   1.2693e+00 
Using solution 1.	
Using surface 1.	
Using reaction 1.	

Reaction 1.	

	  2.041e-03 moles of the following reaction have been added:

	                 Relative
	Reactant            moles

	Al                   2.00000
	Ca                   2.00000
	Na                 -10.00000

	                 Relative
	Element             moles
	Al                   2.00000
	Ca                   2.00000
	Na                 -10.00000

------------------------------Surface composition------------------------------

Diffuse Double Layer Surface-Complexation Model

Su            
	  2.816e-10  Surface + diffuse layer charge, eq
	 -1.000e-02  Surface charge, eq
	 -9.649e-03  sigma, C/m²
	 -1.044e-02  psi, V
	  4.063e-01  -F*psi/RT
	  1.501e+00  exp(-F*psi/RT)
	  1.000e+05  specific area, m²/g
	  1.000e+05  m² for   1.000e+00 g

	Water in diffuse layer: 1.000e+00 kg, 100.0% of total DDL-water.
		      viscosity: 0.90015 mPa s for DDL water.

	Total moles in diffuse layer (excluding water), Donnan calculation.
	Donnan Layer potential, psi_DL = -7.770e-04 V.
	Boltzmann factor, exp(-psi_DL * F / RT) = 1.031e+00 (= c_DL / c_free if z is +1).

	Element       	     Moles
	Al            	  1.7069e-02
	Ca            	  1.6823e-02
	Cl            	  9.6088e-02
	H             	  1.3025e-06
	Na            	  2.1235e-02
	O             	  1.4890e-08

Su            
	  1.000e-02  moles
	                                   Mole                     Log
	Species               Moles    Fraction    Molality    Molality

	Su-               1.000e-02       1.000   1.000e-02      -2.000

-----------------------------Solution composition------------------------------

	Elements           Molality       Moles

	Al                1.559e-02   1.559e-02
	Ca                1.584e-02   1.584e-02
	Cl                9.904e-02   9.904e-02
	Na                2.060e-02   2.060e-02

----------------------------Description of solution----------------------------

                                       pH  =   6.004      Charge balance
                                       pe  =  -1.537      Adjusted to redox equilibrium
      Specific Conductance (µS/cm,  25°C)  = 10412
                          Density (g/cm³)  =   1.00118
                               Volume (L)  =   1.00386
                        Viscosity (mPa s)  =   0.90015
                        Activity of water  =   0.997
                 Ionic strength (mol/kgw)  =   1.616e-01
                       Mass of water (kg)  =   1.000e+00
                 Total alkalinity (eq/kg)  =  -1.235e-06
                         Temperature (°C)  =  25.00
                  Electrical balance (eq)  =   1.607e-09
 Percent error, 100*(Cat-|An|)/(Cat+|An|)  =   0.00
                               Iterations  =   0 (8 overall)
                                  Total H  = 1.110124e+02
                                  Total O  = 5.550622e+01

----------------------------Distribution of species----------------------------

                                               Log       Log       Log    mole V
   Species          Molality    Activity  Molality  Activity     Gamma   cm³/mol

   H+              1.229e-06   9.903e-07    -5.911    -6.004    -0.094      0.00
   OH-             1.408e-08   1.019e-08    -7.851    -7.992    -0.140     -3.58
   H2O             5.551e+01   9.974e-01     1.744    -0.001     0.000     18.07
Al            1.559e-02
   Al+3            1.559e-02   2.237e-03    -1.807    -2.650    -0.843    -40.91
   AlOH+2          0.000e+00   0.000e+00   -46.161   -46.647    -0.486     (0)  
   Al(OH)2+        0.000e+00   0.000e+00   -90.623   -90.744    -0.122     (0)  
   Al(OH)3         0.000e+00   0.000e+00  -145.557  -145.541     0.016     (0)  
   Al(OH)4-        0.000e+00   0.000e+00  -199.216  -199.338    -0.122     (0)  
Ca            1.584e-02
   Ca+2            1.584e-02   5.399e-03    -1.800    -2.268    -0.467    -17.28
   CaOH+           1.194e-09   9.024e-10    -8.923    -9.045    -0.122     (0)  
Cl            9.904e-02
   Cl-             9.904e-02   7.244e-02    -1.004    -1.140    -0.136     18.42
   HCl             2.109e-08   2.471e-08    -7.676    -7.607     0.069     (0)  
H(0)          1.586e-12
   H2              7.930e-13   8.231e-13   -12.101   -12.085     0.016     28.61
Na            2.060e-02
   Na+             2.060e-02   1.563e-02    -1.686    -1.806    -0.120     -0.99
   NaOH            1.535e-20   1.593e-20   -19.814   -19.798     0.016     (0)  
O(0)          0.000e+00
   O2              0.000e+00   0.000e+00   -68.229   -68.213     0.016     30.40

------------------------------Saturation indices-------------------------------

  Phase               SI** log IAP   log K(298 K,   1 atm)

  Al(OH)3(a)        4.56     15.36   10.80  Al(OH)3
  Gibbsite          7.25     15.36    8.11  Al(OH)3
  H2(g)            -8.98    -12.08   -3.10  H2
  H2O(g)           -1.50     -0.00    1.50  H2O
  Halite           -4.52     -2.95    1.57  NaCl
  O2(g)           -65.32    -68.21   -2.89  O2

**For a gas, SI = log10(fugacity). Fugacity = pressure * phi / 1 atm.
  For ideal gases, phi = 1.

Reaction step 10.

solution            1  ( 1 is Donnan, 2 is integration) 
. CB =  -4.7622e-03 
K_Na\Ca (Su) =   1.0012e+00 . Na_DDl / Na0 =   1.0292e+00 f_Cl in DL charge =   2.8118e-01 
K_Na\Al (Su) =   1.2133e+00 
Using solution 1.	
Using surface 1.	
Using reaction 1.	

Reaction 1.	

	  2.041e-03 moles of the following reaction have been added:

	                 Relative
	Reactant            moles

	Al                   2.00000
	Ca                   2.00000
	Na                 -10.00000

	                 Relative
	Element             moles
	Al                   2.00000
	Ca                   2.00000
	Na                 -10.00000

------------------------------Surface composition------------------------------

Diffuse Double Layer Surface-Complexation Model

Su            
	  1.116e-10  Surface + diffuse layer charge, eq
	 -1.000e-02  Surface charge, eq
	 -9.649e-03  sigma, C/m²
	 -1.020e-02  psi, V
	  3.969e-01  -F*psi/RT
	  1.487e+00  exp(-F*psi/RT)
	  1.000e+05  specific area, m²/g
	  1.000e+05  m² for   1.000e+00 g

	Water in diffuse layer: 1.000e+00 kg, 100.0% of total DDL-water.
		      viscosity: 0.90084 mPa s for DDL water.

	Total moles in diffuse layer (excluding water), Donnan calculation.
	Donnan Layer potential, psi_DL = -7.405e-04 V.
	Boltzmann factor, exp(-psi_DL * F / RT) = 1.029e+00 (= c_DL / c_free if z is +1).

	Element       	     Moles
	Al            	  1.9164e-02
	Ca            	  1.8899e-02
	Cl            	  9.6158e-02
	H             	  1.3021e-06
	Na            	  1.0867e-02
	O             	  1.5141e-08

Su            
	  1.000e-02  moles
	                                   Mole                     Log
	Species               Moles    Fraction    Molality    Molality

	Su-               1.000e-02       1.000   1.000e-02      -2.000

-----------------------------Solution composition------------------------------

	Elements           Molality       Moles

	Al                1.758e-02   1.758e-02
	Ca                1.784e-02   1.784e-02
	Cl                9.897e-02   9.897e-02
	Na                1.056e-02   1.056e-02

----------------------------Description of solution----------------------------

                                       pH  =   6.005      Charge balance
                                       pe  =  -1.539      Adjusted to redox equilibrium
      Specific Conductance (µS/cm,  25°C)  = 10306
                          Density (g/cm³)  =   1.00118
                               Volume (L)  =   1.00375
                        Viscosity (mPa s)  =   0.90084
                        Activity of water  =   0.998
                 Ionic strength (mol/kgw)  =   1.695e-01
                       Mass of water (kg)  =   1.000e+00
                 Total alkalinity (eq/kg)  =  -1.235e-06
                         Temperature (°C)  =  25.00
                  Electrical balance (eq)  =   1.889e-09
 Percent error, 100*(Cat-|An|)/(Cat+|An|)  =   0.00
                               Iterations  =   0 (8 overall)
                                  Total H  = 1.110124e+02
                                  Total O  = 5.550622e+01

----------------------------Distribution of species----------------------------

                                               Log       Log       Log    mole V
   Species          Molality    Activity  Molality  Activity     Gamma   cm³/mol

   H+              1.230e-06   9.892e-07    -5.910    -6.005    -0.095      0.00
   OH-             1.417e-08   1.021e-08    -7.849    -7.991    -0.143     -3.57
   H2O             5.551e+01   9.975e-01     1.744    -0.001     0.000     18.07
Al            1.758e-02
   Al+3            1.758e-02   2.469e-03    -1.755    -2.607    -0.852    -40.89
   AlOH+2          0.000e+00   0.000e+00   -46.113   -46.604    -0.491     (0)  
   Al(OH)2+        0.000e+00   0.000e+00   -90.577   -90.700    -0.123     (0)  
   Al(OH)3         0.000e+00   0.000e+00  -145.513  -145.496     0.017     (0)  
   Al(OH)4-        0.000e+00   0.000e+00  -199.170  -199.293    -0.123     (0)  
Ca            1.784e-02
   Ca+2            1.784e-02   6.002e-03    -1.749    -2.222    -0.473    -17.27
   CaOH+           1.333e-09   1.004e-09    -8.875    -8.998    -0.123     (0)  
Cl            9.897e-02
   Cl-             9.897e-02   7.203e-02    -1.004    -1.142    -0.138     18.43
   HCl             2.079e-08   2.455e-08    -7.682    -7.610     0.072     (0)  
H(0)          1.598e-12
   H2              7.990e-13   8.308e-13   -12.097   -12.080     0.017     28.61
Na            1.056e-02
   Na+             1.056e-02   7.983e-03    -1.976    -2.098    -0.121     -0.97
   NaOH            7.837e-21   8.149e-21   -20.106   -20.089     0.017     (0)  
O(0)          0.000e+00
   O2              0.000e+00   0.000e+00   -68.238   -68.221     0.017     30.40

------------------------------Saturation indices-------------------------------

  Phase               SI** log IAP   log K(298 K,   1 atm)

  Al(OH)3(a)        4.60     15.40   10.80  Al(OH)3
  Gibbsite          7.29     15.40    8.11  Al(OH)3
  H2(g)            -8.98    -12.08   -3.10  H2
  H2O(g)           -1.50     -0.00    1.50  H2O
  Halite           -4.81     -3.24    1.57  NaCl
  O2(g)           -65.33    -68.22   -2.89  O2

**For a gas, SI = log10(fugacity). Fugacity = pressure * phi / 1 atm.
  For ideal gases, phi = 1.

Reaction step 11.

solution            1  ( 1 is Donnan, 2 is integration) 
. CB =  -5.0538e-03 
K_Na\Ca (Su) =   9.6993e-01 . Na_DDl / Na0 =   1.0279e+00 f_Cl in DL charge =   2.6855e-01 
K_Na\Al (Su) =   1.1631e+00 
Using solution 1.	
Using surface 1.	
Using reaction 1.	

Reaction 1.	

	  2.041e-03 moles of the following reaction have been added:

	                 Relative
	Reactant            moles

	Al                   2.00000
	Ca                   2.00000
	Na                 -10.00000

	                 Relative
	Element             moles
	Al                   2.00000
	Ca                   2.00000
	Na                 -10.00000

------------------------------Surface composition------------------------------

Diffuse Double Layer Surface-Complexation Model

Su            
	  7.238e-11  Surface + diffuse layer charge, eq
	 -1.000e-02  Surface charge, eq
	 -9.649e-03  sigma, C/m²
	 -9.969e-03  psi, V
	  3.880e-01  -F*psi/RT
	  1.474e+00  exp(-F*psi/RT)
	  1.000e+05  specific area, m²/g
	  1.000e+05  m² for   1.000e+00 g

	Water in diffuse layer: 1.000e+00 kg, 100.0% of total DDL-water.
		      viscosity: 0.90180 mPa s for DDL water.

	Total moles in diffuse layer (excluding water), Donnan calculation.
	Donnan Layer potential, psi_DL = -7.072e-04 V.
	Boltzmann factor, exp(-psi_DL * F / RT) = 1.028e+00 (= c_DL / c_free if z is +1).

	Element       	     Moles
	Al            	  2.1253e-02
	Ca            	  2.0973e-02
	Cl            	  9.6221e-02
	H             	  1.3018e-06
	Na            	  5.1436e-04
	O             	  1.5387e-08

Su            
	  1.000e-02  moles
	                                   Mole                     Log
	Species               Moles    Fraction    Molality    Molality

	Su-               1.000e-02       1.000   1.000e-02      -2.000

-----------------------------Solution composition------------------------------

	Elements           Molality       Moles

	Al                1.957e-02   1.957e-02
	Ca                1.985e-02   1.985e-02
	Cl                9.891e-02   9.891e-02
	Na                5.004e-04   5.004e-04

----------------------------Description of solution----------------------------

                                       pH  =   6.005      Charge balance
                                       pe  =  -1.727      Adjusted to redox equilibrium
      Specific Conductance (µS/cm,  25°C)  = 10180
                          Density (g/cm³)  =   1.00119
                               Volume (L)  =   1.00365
                        Viscosity (mPa s)  =   0.90180
                        Activity of water  =   0.998
                 Ionic strength (mol/kgw)  =   1.775e-01
                       Mass of water (kg)  =   1.000e+00
                 Total alkalinity (eq/kg)  =  -1.236e-06
                         Temperature (°C)  =  25.00
                  Electrical balance (eq)  =   2.000e-09
 Percent error, 100*(Cat-|An|)/(Cat+|An|)  =   0.00
                               Iterations  =   0 (8 overall)
                                  Total H  = 1.110124e+02
                                  Total O  = 5.550622e+01

----------------------------Distribution of species----------------------------

                                               Log       Log       Log    mole V
   Species          Molality    Activity  Molality  Activity     Gamma   cm³/mol

   H+              1.232e-06   9.880e-07    -5.910    -6.005    -0.096      0.00
   OH-             1.426e-08   1.022e-08    -7.846    -7.991    -0.145     -3.55
   H2O             5.551e+01   9.976e-01     1.744    -0.001     0.000     18.07
Al            1.957e-02
   Al+3            1.957e-02   2.694e-03    -1.708    -2.570    -0.861    -40.87
   AlOH+2          0.000e+00   0.000e+00   -46.069   -46.565    -0.496     (0)  
   Al(OH)2+        0.000e+00   0.000e+00   -90.537   -90.661    -0.124     (0)  
   Al(OH)3         0.000e+00   0.000e+00  -145.475  -145.457     0.018     (0)  
   Al(OH)4-        0.000e+00   0.000e+00  -199.129  -199.253    -0.124     (0)  
Ca            1.985e-02
   Ca+2            1.985e-02   6.593e-03    -1.702    -2.181    -0.479    -17.25
   CaOH+           1.470e-09   1.105e-09    -8.833    -8.957    -0.124     (0)  
Cl            9.891e-02
   Cl-             9.891e-02   7.165e-02    -1.005    -1.145    -0.140     18.43
   HCl             2.049e-08   2.439e-08    -7.688    -7.613     0.076     (0)  
H(0)          3.779e-12
   H2              1.890e-12   1.969e-12   -11.724   -11.706     0.018     28.61
Na            5.004e-04
   Na+             5.004e-04   3.772e-04    -3.301    -3.423    -0.123     -0.96
   NaOH            3.700e-22   3.855e-22   -21.432   -21.414     0.018     (0)  
O(0)          0.000e+00
   O2              0.000e+00   0.000e+00   -68.988   -68.970     0.018     30.40

------------------------------Saturation indices-------------------------------

  Phase               SI** log IAP   log K(298 K,   1 atm)

  Al(OH)3(a)        4.64     15.44   10.80  Al(OH)3
  Gibbsite          7.33     15.44    8.11  Al(OH)3
  H2(g)            -8.60    -11.71   -3.10  H2
  H2O(g)           -1.50     -0.00    1.50  H2O
  Halite           -6.14     -4.57    1.57  NaCl
  O2(g)           -66.08    -68.97   -2.89  O2

**For a gas, SI = log10(fugacity). Fugacity = pressure * phi / 1 atm.
  For ideal gases, phi = 1.

------------------
End of simulation.
------------------

------------------------------------
Reading input data for simulation 2.
------------------------------------

	SURFACE 2
	 Su 1e-2 1e5 1
	 equilibrate 2
	 diff 1e-8
	USE solution 2
	USE reaction 2
	END
------------------------------------------------------
Beginning of initial surface-composition calculations.
------------------------------------------------------

Surface 2.	

Diffuse Double Layer Surface-Complexation Model

Su            
	  3.990e-17  Surface + diffuse layer charge, eq
	 -1.000e-02  Surface charge, eq
	 -9.649e-03  sigma, C/m²
	 -1.322e-02  psi, V
	  5.145e-01  -F*psi/RT
	  1.673e+00  exp(-F*psi/RT)
	  1.000e+05  specific area, m²/g
	  1.000e+05  m² for   1.000e+00 g

	Water in diffuse layer: 1.000e+00 kg, 100.0% of total DDL-water.
		      viscosity: 0.89854 mPa s for DDL water.

	Total moles in diffuse layer (excluding water)

	Element       	     Moles
	Cl            	  9.5641e-02
	H             	  1.3165e-06
	Na            	  1.0564e-01
	O             	  1.2667e-08

Su            
	  1.000e-02  moles
	                                   Mole                     Log
	Species               Moles    Fraction    Molality    Molality

	Su-               1.000e-02       1.000   1.000e-02      -2.000

-----------------------------------------
Beginning of batch-reaction calculations.
-----------------------------------------

Reaction step 1.

solution            2  ( 1 is Donnan, 2 is integration) 
. CB =  -7.4816e-08 
K_Na\Ca (Su) =   1.4674e+00 . Na_DDl / Na0 =   1.0564e+00 f_Cl in DL charge =   4.3605e-01 
K_Na\Al (Su) =   2.0095e+00 
Using solution 2.	
Using surface 2.	
Using reaction 2.	

Reaction 2.	

	  1.000e-08 moles of the following reaction have been added:

	                 Relative
	Reactant            moles

	Al                   2.00000
	Ca                   2.00000
	Na                 -10.00000

	                 Relative
	Element             moles
	Al                   2.00000
	Ca                   2.00000
	Na                 -10.00000

------------------------------Surface composition------------------------------

Diffuse Double Layer Surface-Complexation Model

Su            
	 -5.204e-18  Surface + diffuse layer charge, eq
	 -1.000e-02  Surface charge, eq
	 -9.649e-03  sigma, C/m²
	 -1.322e-02  psi, V
	  5.145e-01  -F*psi/RT
	  1.673e+00  exp(-F*psi/RT)
	  1.000e+05  specific area, m²/g
	  1.000e+05  m² for   1.000e+00 g

	Water in diffuse layer: 1.000e+00 kg, 100.0% of total DDL-water.
		      viscosity: 0.89854 mPa s for DDL water.

	Total moles in diffuse layer (excluding water)

	Element       	     Moles
	Al            	  1.1038e-08
	Ca            	  1.0615e-08
	Cl            	  9.5641e-02
	H             	  1.3165e-06
	Na            	  1.0564e-01
	O             	  1.2667e-08

Su            
	  1.000e-02  moles
	                                   Mole                     Log
	Species               Moles    Fraction    Molality    Molality

	Su-               1.000e-02       1.000   1.000e-02      -2.000

-----------------------------Solution composition------------------------------

	Elements           Molality       Moles

	Al                8.962e-09   8.962e-09
	Ca                9.385e-09   9.385e-09
	Cl                1.000e-01   1.000e-01
	Na                1.000e-01   1.000e-01

----------------------------Description of solution----------------------------

                                       pH  =   6.000      Charge balance
                                       pe  =  -0.291      Adjusted to redox equilibrium
      Specific Conductance (µS/cm,  25°C)  = 10609
                          Density (g/cm³)  =   1.00115
                               Volume (L)  =   1.00469
                        Viscosity (mPa s)  =   0.89854
                        Activity of water  =   0.997
                 Ionic strength (mol/kgw)  =   1.000e-01
                       Mass of water (kg)  =   1.000e+00
                 Total alkalinity (eq/kg)  =  -1.222e-06
                         Temperature (°C)  =  25.00
                  Electrical balance (eq)  =  -1.184e-15
 Percent error, 100*(Cat-|An|)/(Cat+|An|)  =  -0.00
                               Iterations  =   3 (8 overall)
                                  Total H  = 1.110124e+02
                                  Total O  = 5.550622e+01

----------------------------Distribution of species----------------------------

                                               Log       Log       Log    mole V
   Species          Molality    Activity  Molality  Activity     Gamma   cm³/mol

   H+              1.212e-06   1.000e-06    -5.917    -6.000    -0.083      0.00
   OH-             1.324e-08   1.009e-08    -7.878    -7.996    -0.118     -3.73
   H2O             5.551e+01   9.966e-01     1.744    -0.001     0.000     18.07
Al            8.962e-09
   Al+3            8.962e-09   1.593e-09    -8.048    -8.798    -0.750    -41.11
   AlOH+2          0.000e+00   0.000e+00   -52.370   -52.799    -0.429     (0)  
   Al(OH)2+        0.000e+00   0.000e+00   -96.794   -96.901    -0.107     (0)  
   Al(OH)3         0.000e+00   0.000e+00  -151.712  -151.702     0.010     (0)  
   Al(OH)4-        0.000e+00   0.000e+00  -205.396  -205.504    -0.107     (0)  
Ca            9.385e-09
   Ca+2            9.385e-09   3.667e-09    -8.028    -8.436    -0.408    -17.43
   CaOH+           7.764e-16   6.066e-16   -15.110   -15.217    -0.107     (0)  
Cl            1.000e-01
   Cl-             1.000e-01   7.666e-02    -1.000    -1.115    -0.115     18.34
   HCl             2.394e-08   2.641e-08    -7.621    -7.578     0.043     (0)  
H(0)          5.294e-15
   H2              2.647e-15   2.709e-15   -14.577   -14.567     0.010     28.61
Na            1.000e-01
   Na+             1.000e-01   7.851e-02    -1.000    -1.105    -0.105     -1.09
   NaOH            7.739e-20   7.919e-20   -19.111   -19.101     0.010     (0)  
O(0)          0.000e+00
   O2              0.000e+00   0.000e+00   -63.258   -63.248     0.010     30.40

------------------------------Saturation indices-------------------------------

  Phase               SI** log IAP   log K(298 K,   1 atm)

  Al(OH)3(a)       -1.60      9.20   10.80  Al(OH)3
  Gibbsite          1.09      9.20    8.11  Al(OH)3
  H2(g)           -11.47    -14.57   -3.10  H2
  H2O(g)           -1.50     -0.00    1.50  H2O
  Halite           -3.79     -2.22    1.57  NaCl
  O2(g)           -60.36    -63.25   -2.89  O2

**For a gas, SI = log10(fugacity). Fugacity = pressure * phi / 1 atm.
  For ideal gases, phi = 1.

Reaction step 2.

solution            2  ( 1 is Donnan, 2 is integration) 
. CB =  -1.1157e-03 
K_Na\Ca (Su) =   1.3385e+00 . Na_DDl / Na0 =   1.0500e+00 f_Cl in DL charge =   3.9234e-01 
K_Na\Al (Su) =   1.7788e+00 
Using solution 2.	
Using surface 2.	
Using reaction 2.	

Reaction 2.	

	  2.041e-03 moles of the following reaction have been added:

	                 Relative
	Reactant            moles

	Al                   2.00000
	Ca                   2.00000
	Na                 -10.00000

	                 Relative
	Element             moles
	Al                   2.00000
	Ca                   2.00000
	Na                 -10.00000

------------------------------Surface composition------------------------------

Diffuse Double Layer Surface-Complexation Model

Su            
	 -2.401e-15  Surface + diffuse layer charge, eq
	 -1.000e-02  Surface charge, eq
	 -9.649e-03  sigma, C/m²
	 -1.241e-02  psi, V
	  4.829e-01  -F*psi/RT
	  1.621e+00  exp(-F*psi/RT)
	  1.000e+05  specific area, m²/g
	  1.000e+05  m² for   1.000e+00 g

	Water in diffuse layer: 1.000e+00 kg, 100.0% of total DDL-water.
		      viscosity: 0.89858 mPa s for DDL water.

	Total moles in diffuse layer (excluding water)

	Element       	     Moles
	Al            	  2.2271e-03
	Ca            	  2.1519e-03
	Cl            	  9.5859e-02
	H             	  1.3134e-06
	Na            	  9.4873e-02
	O             	  1.2981e-08

Su            
	  1.000e-02  moles
	                                   Mole                     Log
	Species               Moles    Fraction    Molality    Molality

	Su-               1.000e-02       1.000   1.000e-02      -2.000

-----------------------------Solution composition------------------------------

	Elements           Molality       Moles

	Al                1.855e-03   1.855e-03
	Ca                1.930e-03   1.930e-03
	Cl                9.978e-02   9.978e-02
	Na                9.036e-02   9.036e-02

----------------------------Description of solution----------------------------

                                       pH  =   6.000      Charge balance
                                       pe  =  -2.530      Adjusted to redox equilibrium
      Specific Conductance (µS/cm,  25°C)  = 10669
                          Density (g/cm³)  =   1.00115
                               Volume (L)  =   1.00459
                        Viscosity (mPa s)  =   0.89858
                        Activity of water  =   0.997
                 Ionic strength (mol/kgw)  =   1.073e-01
                       Mass of water (kg)  =   1.000e+00
                 Total alkalinity (eq/kg)  =  -1.226e-06
                         Temperature (°C)  =  25.00
                  Electrical balance (eq)  =  -1.119e-15
 Percent error, 100*(Cat-|An|)/(Cat+|An|)  =  -0.00
                               Iterations  =   1 (14 overall)
                                  Total H  = 1.110124e+02
                                  Total O  = 5.550622e+01

----------------------------Distribution of species----------------------------

                                               Log       Log       Log    mole V
   Species          Molality    Activity  Molality  Activity     Gamma   cm³/mol

   H+              1.216e-06   1.000e-06    -5.915    -6.000    -0.085      0.00
   OH-             1.334e-08   1.009e-08    -7.875    -7.996    -0.121     -3.71
   H2O             5.551e+01   9.967e-01     1.744    -0.001     0.000     18.07
Al            1.855e-03
   Al+3            1.855e-03   3.196e-04    -2.732    -3.495    -0.764    -41.08
   AlOH+2          0.000e+00   0.000e+00   -47.059   -47.497    -0.438     (0)  
   Al(OH)2+        0.000e+00   0.000e+00   -91.489   -91.598    -0.109     (0)  
   Al(OH)3         0.000e+00   0.000e+00  -146.411  -146.400     0.011     (0)  
   Al(OH)4-        0.000e+00   0.000e+00  -200.092  -200.201    -0.109     (0)  
Ca            1.930e-03
   Ca+2            1.930e-03   7.394e-04    -2.714    -3.131    -0.417    -17.41
   CaOH+           1.573e-10   1.223e-10    -9.803    -9.913    -0.109     (0)  
Cl            9.978e-02
   Cl-             9.978e-02   7.599e-02    -1.001    -1.119    -0.118     18.35
   HCl             2.357e-08   2.618e-08    -7.628    -7.582     0.046     (0)  
H(0)          1.588e-10
   H2              7.939e-11   8.138e-11   -10.100   -10.089     0.011     28.61
Na            9.036e-02
   Na+             9.036e-02   7.058e-02    -1.044    -1.151    -0.107     -1.08
   NaOH            6.946e-20   7.120e-20   -19.158   -19.148     0.011     (0)  
O(0)          0.000e+00
   O2              0.000e+00   0.000e+00   -72.215   -72.204     0.011     30.40

------------------------------Saturation indices-------------------------------

  Phase               SI** log IAP   log K(298 K,   1 atm)

  Al(OH)3(a)        3.70     14.50   10.80  Al(OH)3
  Gibbsite          6.39     14.50    8.11  Al(OH)3
  H2(g)            -6.99    -10.09   -3.10  H2
  H2O(g)           -1.50     -0.00    1.50  H2O
  Halite           -3.84     -2.27    1.57  NaCl
  O2(g)           -69.31    -72.20   -2.89  O2

**For a gas, SI = log10(fugacity). Fugacity = pressure * phi / 1 atm.
  For ideal gases, phi = 1.

Reaction step 3.

solution            2  ( 1 is Donnan, 2 is integration) 
. CB =  -1.9946e-03 
K_Na\Ca (Su) =   1.2413e+00 . Na_DDl / Na0 =   1.0451e+00 f_Cl in DL charge =   3.5773e-01 
K_Na\Al (Su) =   1.6095e+00 
Using solution 2.	
Using surface 2.	
Using reaction 2.	

Reaction 2.	

	  2.041e-03 moles of the following reaction have been added:

	                 Relative
	Reactant            moles

	Al                   2.00000
	Ca                   2.00000
	Na                 -10.00000

	                 Relative
	Element             moles
	Al                   2.00000
	Ca                   2.00000
	Na                 -10.00000

------------------------------Surface composition------------------------------

Diffuse Double Layer Surface-Complexation Model

Su            
	 -2.156e-15  Surface + diffuse layer charge, eq
	 -1.000e-02  Surface charge, eq
	 -9.649e-03  sigma, C/m²
	 -1.176e-02  psi, V
	  4.577e-01  -F*psi/RT
	  1.580e+00  exp(-F*psi/RT)
	  1.000e+05  specific area, m²/g
	  1.000e+05  m² for   1.000e+00 g

	Water in diffuse layer: 1.000e+00 kg, 100.0% of total DDL-water.
		      viscosity: 0.89864 mPa s for DDL water.

	Total moles in diffuse layer (excluding water)

	Element       	     Moles
	Al            	  4.4146e-03
	Ca            	  4.2814e-03
	Cl            	  9.6032e-02
	H             	  1.3110e-06
	Na            	  8.4224e-02
	O             	  1.3282e-08

Su            
	  1.000e-02  moles
	                                   Mole                     Log
	Species               Moles    Fraction    Molality    Molality

	Su-               1.000e-02       1.000   1.000e-02      -2.000

-----------------------------Solution composition------------------------------

	Elements           Molality       Moles

	Al                3.750e-03   3.750e-03
	Ca                3.883e-03   3.883e-03
	Cl                9.961e-02   9.961e-02
	Na                8.059e-02   8.059e-02

----------------------------Description of solution----------------------------

                                       pH  =   6.000      Charge balance
                                       pe  =  -2.387      Adjusted to redox equilibrium
      Specific Conductance (µS/cm,  25°C)  = 10696
                          Density (g/cm³)  =   1.00115
                               Volume (L)  =   1.00449
                        Viscosity (mPa s)  =   0.89864
                        Activity of water  =   0.997
                 Ionic strength (mol/kgw)  =   1.147e-01
                       Mass of water (kg)  =   1.000e+00
                 Total alkalinity (eq/kg)  =  -1.229e-06
                         Temperature (°C)  =  25.00
                  Electrical balance (eq)  =  -3.437e-15
 Percent error, 100*(Cat-|An|)/(Cat+|An|)  =  -0.00
                               Iterations  =   1 (9 overall)
[...]
	 -9.649e-03  sigma, C/m²
	 -9.703e-03  psi, V
	  3.777e-01  -F*psi/RT
	  1.459e+00  exp(-F*psi/RT)
	  1.000e+05  specific area, m²/g
	  1.000e+05  m² for   1.000e+00 g

	Water in diffuse layer: 1.000e+00 kg, 100.0% of total DDL-water.
		      viscosity: 0.89966 mPa s for DDL water.

	Total moles in diffuse layer (excluding water)

	Element       	     Moles
	Al            	  1.5060e-02
	Ca            	  1.4759e-02
	Cl            	  9.6556e-02
	H             	  1.3053e-06
	Na            	  3.1856e-02
	O             	  1.4770e-08

Su            
	  1.000e-02  moles
	                                   Mole                     Log
	Species               Moles    Fraction    Molality    Molality

	Su-               1.000e-02       1.000   1.000e-02      -2.000

-----------------------------Solution composition------------------------------

	Elements           Molality       Moles

	Al                1.351e-02   1.351e-02
	Ca                1.382e-02   1.382e-02
	Cl                9.909e-02   9.909e-02
	Na                3.091e-02   3.091e-02

----------------------------Description of solution----------------------------

                                       pH  =   6.002      Charge balance
                                       pe  =  12.959      Adjusted to redox equilibrium
      Specific Conductance (µS/cm,  25°C)  = 10501
                          Density (g/cm³)  =   1.00117
                               Volume (L)  =   1.00397
                        Viscosity (mPa s)  =   0.89966
                        Activity of water  =   0.997
                 Ionic strength (mol/kgw)  =   1.534e-01
                       Mass of water (kg)  =   1.000e+00
                 Total alkalinity (eq/kg)  =  -1.238e-06
                         Temperature (°C)  =  25.00
                  Electrical balance (eq)  =  -8.148e-15
 Percent error, 100*(Cat-|An|)/(Cat+|An|)  =  -0.00
                               Iterations  =   1 (8 overall)
                                  Total H  = 1.110124e+02
                                  Total O  = 5.550622e+01

----------------------------Distribution of species----------------------------

                                               Log       Log       Log    mole V
   Species          Molality    Activity  Molality  Activity     Gamma   cm³/mol

   H+              1.231e-06   9.949e-07    -5.910    -6.002    -0.093      0.00
   OH-             1.393e-08   1.015e-08    -7.856    -7.994    -0.138     -3.60
   H2O             5.551e+01   9.973e-01     1.744    -0.001     0.000     18.07
Al            1.351e-02
   Al+3            1.351e-02   1.984e-03    -1.869    -2.702    -0.833    -40.93
   AlOH+2          0.000e+00   0.000e+00   -46.221   -46.701    -0.480     (0)  
   Al(OH)2+        0.000e+00   0.000e+00   -90.680   -90.800    -0.120     (0)  
   Al(OH)3         0.000e+00   0.000e+00  -145.615  -145.599     0.015     (0)  
   Al(OH)4-        0.000e+00   0.000e+00  -199.278  -199.398    -0.120     (0)  
Ca            1.382e-02
   Ca+2            1.382e-02   4.780e-03    -1.860    -2.321    -0.461    -17.30
   CaOH+           1.048e-09   7.952e-10    -8.979    -9.100    -0.120     (0)  
Cl            9.909e-02
   Cl-             9.909e-02   7.285e-02    -1.004    -1.138    -0.134     18.41
   HCl             2.148e-08   2.497e-08    -7.668    -7.603     0.065     (0)  
H(0)          0.000e+00
   H2              0.000e+00   0.000e+00   -41.088   -41.072     0.015     28.61
Na            3.091e-02
   Na+             3.091e-02   2.353e-02    -1.510    -1.628    -0.118     -1.00
   NaOH            2.304e-20   2.387e-20   -19.637   -19.622     0.015     (0)  
O(0)          1.117e-10
   O2              5.583e-11   5.784e-11   -10.253   -10.238     0.015     30.40

------------------------------Saturation indices-------------------------------

  Phase               SI** log IAP   log K(298 K,   1 atm)

  Al(OH)3(a)        4.50     15.30   10.80  Al(OH)3
  Gibbsite          7.19     15.30    8.11  Al(OH)3
  H2(g)           -37.97    -41.07   -3.10  H2
  H2O(g)           -1.50     -0.00    1.50  H2O
  Halite           -4.34     -2.77    1.57  NaCl
  O2(g)            -7.35    -10.24   -2.89  O2

**For a gas, SI = log10(fugacity). Fugacity = pressure * phi / 1 atm.
  For ideal gases, phi = 1.

Reaction step 9.

solution            2  ( 1 is Donnan, 2 is integration) 
. CB =  -4.9743e-03 
K_Na\Ca (Su) =   9.2802e-01 . Na_DDl / Na0 =   1.0290e+00 f_Cl in DL charge =   2.3949e-01 
K_Na\Al (Su) =   1.0938e+00 
Using solution 2.	
Using surface 2.	
Using reaction 2.	

Reaction 2.	

	  2.041e-03 moles of the following reaction have been added:

	                 Relative
	Reactant            moles

	Al                   2.00000
	Ca                   2.00000
	Na                 -10.00000

	                 Relative
	Element             moles
	Al                   2.00000
	Ca                   2.00000
	Na                 -10.00000

------------------------------Surface composition------------------------------

Diffuse Double Layer Surface-Complexation Model

Su            
	 -4.857e-17  Surface + diffuse layer charge, eq
	 -1.000e-02  Surface charge, eq
	 -9.649e-03  sigma, C/m²
	 -9.424e-03  psi, V
	  3.668e-01  -F*psi/RT
	  1.443e+00  exp(-F*psi/RT)
	  1.000e+05  specific area, m²/g
	  1.000e+05  m² for   1.000e+00 g

	Water in diffuse layer: 1.000e+00 kg, 100.0% of total DDL-water.
		      viscosity: 0.90015 mPa s for DDL water.

	Total moles in diffuse layer (excluding water)

	Element       	     Moles
	Al            	  1.7158e-02
	Ca            	  1.6835e-02
	Cl            	  9.6624e-02
	H             	  1.3047e-06
	Na            	  2.1478e-02
	O             	  1.5031e-08

Su            
	  1.000e-02  moles
	                                   Mole                     Log
	Species               Moles    Fraction    Molality    Molality

	Su-               1.000e-02       1.000   1.000e-02      -2.000

-----------------------------Solution composition------------------------------

	Elements           Molality       Moles

	Al                1.550e-02   1.550e-02
	Ca                1.582e-02   1.582e-02
	Cl                9.902e-02   9.902e-02
	Na                2.087e-02   2.087e-02

----------------------------Description of solution----------------------------

                                       pH  =   6.003      Charge balance
                                       pe  =  12.966      Adjusted to redox equilibrium
      Specific Conductance (µS/cm,  25°C)  = 10413
                          Density (g/cm³)  =   1.00118
                               Volume (L)  =   1.00386
                        Viscosity (mPa s)  =   0.90015
                        Activity of water  =   0.997
                 Ionic strength (mol/kgw)  =   1.613e-01
                       Mass of water (kg)  =   1.000e+00
                 Total alkalinity (eq/kg)  =  -1.239e-06
                         Temperature (°C)  =  25.00
                  Electrical balance (eq)  =  -8.218e-15
 Percent error, 100*(Cat-|An|)/(Cat+|An|)  =  -0.00
                               Iterations  =   1 (8 overall)
                                  Total H  = 1.110124e+02
                                  Total O  = 5.550622e+01

----------------------------Distribution of species----------------------------

                                               Log       Log       Log    mole V
   Species          Molality    Activity  Molality  Activity     Gamma   cm³/mol

   H+              1.233e-06   9.938e-07    -5.909    -6.003    -0.094      0.00
   OH-             1.403e-08   1.016e-08    -7.853    -7.993    -0.140     -3.58
   H2O             5.551e+01   9.974e-01     1.744    -0.001     0.000     18.07
Al            1.550e-02
   Al+3            1.550e-02   2.226e-03    -1.810    -2.653    -0.843    -40.91
   AlOH+2          0.000e+00   0.000e+00   -46.165   -46.651    -0.486     (0)  
   Al(OH)2+        0.000e+00   0.000e+00   -90.628   -90.749    -0.121     (0)  
   Al(OH)3         0.000e+00   0.000e+00  -145.564  -145.548     0.016     (0)  
   Al(OH)4-        0.000e+00   0.000e+00  -199.225  -199.346    -0.121     (0)  
Ca            1.582e-02
   Ca+2            1.582e-02   5.397e-03    -1.801    -2.268    -0.467    -17.28
   CaOH+           1.189e-09   8.990e-10    -8.925    -9.046    -0.121     (0)  
Cl            9.902e-02
   Cl-             9.902e-02   7.243e-02    -1.004    -1.140    -0.136     18.42
   HCl             2.117e-08   2.480e-08    -7.674    -7.606     0.069     (0)  
H(0)          0.000e+00
   H2              0.000e+00   0.000e+00   -41.104   -41.087     0.016     28.61
Na            2.087e-02
   Na+             2.087e-02   1.584e-02    -1.680    -1.800    -0.120     -0.99
   NaOH            1.550e-20   1.609e-20   -19.810   -19.794     0.016     (0)  
O(0)          1.196e-10
   O2              5.979e-11   6.205e-11   -10.223   -10.207     0.016     30.40

------------------------------Saturation indices-------------------------------

  Phase               SI** log IAP   log K(298 K,   1 atm)

  Al(OH)3(a)        4.55     15.35   10.80  Al(OH)3
  Gibbsite          7.24     15.35    8.11  Al(OH)3
  H2(g)           -37.99    -41.09   -3.10  H2
  H2O(g)           -1.50     -0.00    1.50  H2O
  Halite           -4.51     -2.94    1.57  NaCl
  O2(g)            -7.31    -10.21   -2.89  O2

**For a gas, SI = log10(fugacity). Fugacity = pressure * phi / 1 atm.
  For ideal gases, phi = 1.

Reaction step 10.

solution            2  ( 1 is Donnan, 2 is integration) 
. CB =  -5.2750e-03 
K_Na\Ca (Su) =   8.9688e-01 . Na_DDl / Na0 =   1.0274e+00 f_Cl in DL charge =   2.2751e-01 
K_Na\Al (Su) =   1.0453e+00 
Using solution 2.	
Using surface 2.	
Using reaction 2.	

Reaction 2.	

	  2.041e-03 moles of the following reaction have been added:

	                 Relative
	Reactant            moles

	Al                   2.00000
	Ca                   2.00000
	Na                 -10.00000

	                 Relative
	Element             moles
	Al                   2.00000
	Ca                   2.00000
	Na                 -10.00000

------------------------------Surface composition------------------------------

Diffuse Double Layer Surface-Complexation Model

Su            
	 -6.939e-17  Surface + diffuse layer charge, eq
	 -1.000e-02  Surface charge, eq
	 -9.649e-03  sigma, C/m²
	 -9.170e-03  psi, V
	  3.569e-01  -F*psi/RT
	  1.429e+00  exp(-F*psi/RT)
	  1.000e+05  specific area, m²/g
	  1.000e+05  m² for   1.000e+00 g

	Water in diffuse layer: 1.000e+00 kg, 100.0% of total DDL-water.
		      viscosity: 0.90082 mPa s for DDL water.

	Total moles in diffuse layer (excluding water)

	Element       	     Moles
	Al            	  1.9249e-02
	Ca            	  1.8908e-02
	Cl            	  9.6683e-02
	H             	  1.3043e-06
	Na            	  1.1118e-02
	O             	  1.5285e-08

Su            
	  1.000e-02  moles
	                                   Mole                     Log
	Species               Moles    Fraction    Molality    Molality

	Su-               1.000e-02       1.000   1.000e-02      -2.000

-----------------------------Solution composition------------------------------

	Elements           Molality       Moles

	Al                1.749e-02   1.749e-02
	Ca                1.783e-02   1.783e-02
	Cl                9.896e-02   9.896e-02
	Na                1.082e-02   1.082e-02

----------------------------Description of solution----------------------------

                                       pH  =   6.003      Charge balance
                                       pe  =  12.971      Adjusted to redox equilibrium
      Specific Conductance (µS/cm,  25°C)  = 10308
                          Density (g/cm³)  =   1.00118
                               Volume (L)  =   1.00376
                        Viscosity (mPa s)  =   0.90082
                        Activity of water  =   0.998
                 Ionic strength (mol/kgw)  =   1.693e-01
                       Mass of water (kg)  =   1.000e+00
                 Total alkalinity (eq/kg)  =  -1.240e-06
                         Temperature (°C)  =  25.00
                  Electrical balance (eq)  =  -8.298e-15
 Percent error, 100*(Cat-|An|)/(Cat+|An|)  =  -0.00
                               Iterations  =   1 (9 overall)
                                  Total H  = 1.110124e+02
                                  Total O  = 5.550622e+01

----------------------------Distribution of species----------------------------

                                               Log       Log       Log    mole V
   Species          Molality    Activity  Molality  Activity     Gamma   cm³/mol

   H+              1.234e-06   9.927e-07    -5.909    -6.003    -0.095      0.00
   OH-             1.412e-08   1.017e-08    -7.850    -7.993    -0.142     -3.57
   H2O             5.551e+01   9.975e-01     1.744    -0.001     0.000     18.07
Al            1.749e-02
   Al+3            1.749e-02   2.459e-03    -1.757    -2.609    -0.852    -40.89
   AlOH+2          0.000e+00   0.000e+00   -46.116   -46.607    -0.491     (0)  
   Al(OH)2+        0.000e+00   0.000e+00   -90.582   -90.705    -0.123     (0)  
   Al(OH)3         0.000e+00   0.000e+00  -145.520  -145.503     0.017     (0)  
   Al(OH)4-        0.000e+00   0.000e+00  -199.178  -199.301    -0.123     (0)  
Ca            1.783e-02
   Ca+2            1.783e-02   6.001e-03    -1.749    -2.222    -0.473    -17.27
   CaOH+           1.328e-09   1.001e-09    -8.877    -9.000    -0.123     (0)  
Cl            9.896e-02
   Cl-             9.896e-02   7.204e-02    -1.005    -1.142    -0.138     18.43
   HCl             2.087e-08   2.463e-08    -7.681    -7.608     0.072     (0)  
H(0)          0.000e+00
   H2              0.000e+00   0.000e+00   -41.115   -41.098     0.017     28.61
Na            1.082e-02
   Na+             1.082e-02   8.183e-03    -1.966    -2.087    -0.121     -0.97
   NaOH            8.005e-21   8.324e-21   -20.097   -20.080     0.017     (0)  
O(0)          1.252e-10
   O2              6.258e-11   6.506e-11   -10.204   -10.187     0.017     30.40

------------------------------Saturation indices-------------------------------

  Phase               SI** log IAP   log K(298 K,   1 atm)

  Al(OH)3(a)        4.60     15.40   10.80  Al(OH)3
  Gibbsite          7.29     15.40    8.11  Al(OH)3
  H2(g)           -38.00    -41.10   -3.10  H2
  H2O(g)           -1.50     -0.00    1.50  H2O
  Halite           -4.80     -3.23    1.57  NaCl
  O2(g)            -7.29    -10.19   -2.89  O2

**For a gas, SI = log10(fugacity). Fugacity = pressure * phi / 1 atm.
  For ideal gases, phi = 1.

Reaction step 11.

solution            2  ( 1 is Donnan, 2 is integration) 
. CB =  -5.5447e-03 
K_Na\Ca (Su) =   8.6889e-01 . Na_DDl / Na0 =   1.0260e+00 f_Cl in DL charge =   2.1676e-01 
K_Na\Al (Su) =   1.0022e+00 
Using solution 2.	
Using surface 2.	
Using reaction 2.	

Reaction 2.	

	  2.041e-03 moles of the following reaction have been added:

	                 Relative
	Reactant            moles

	Al                   2.00000
	Ca                   2.00000
	Na                 -10.00000

	                 Relative
	Element             moles
	Al                   2.00000
	Ca                   2.00000
	Na                 -10.00000

------------------------------Surface composition------------------------------

Diffuse Double Layer Surface-Complexation Model

Su            
	 -1.214e-17  Surface + diffuse layer charge, eq
	 -1.000e-02  Surface charge, eq
	 -9.649e-03  sigma, C/m²
	 -8.939e-03  psi, V
	  3.479e-01  -F*psi/RT
	  1.416e+00  exp(-F*psi/RT)
	  1.000e+05  specific area, m²/g
	  1.000e+05  m² for   1.000e+00 g

	Water in diffuse layer: 1.000e+00 kg, 100.0% of total DDL-water.
		      viscosity: 0.90178 mPa s for DDL water.

	Total moles in diffuse layer (excluding water)

	Element       	     Moles
	Al            	  2.1335e-02
	Ca            	  2.0978e-02
	Cl            	  9.6737e-02
	H             	  1.3039e-06
	Na            	  7.7452e-04
	O             	  1.5531e-08

Su            
	  1.000e-02  moles
	                                   Mole                     Log
	Species               Moles    Fraction    Molality    Molality

	Su-               1.000e-02       1.000   1.000e-02      -2.000

-----------------------------Solution composition------------------------------

	Elements           Molality       Moles

	Al                1.949e-02   1.949e-02
	Ca                1.984e-02   1.984e-02
	Cl                9.890e-02   9.890e-02
	Na                7.549e-04   7.549e-04

----------------------------Description of solution----------------------------

                                       pH  =   6.004      Charge balance
                                       pe  =  12.974      Adjusted to redox equilibrium
      Specific Conductance (µS/cm,  25°C)  = 10184
                          Density (g/cm³)  =   1.00119
                               Volume (L)  =   1.00365
                        Viscosity (mPa s)  =   0.90178
                        Activity of water  =   0.998
                 Ionic strength (mol/kgw)  =   1.772e-01
                       Mass of water (kg)  =   1.000e+00
                 Total alkalinity (eq/kg)  =  -1.241e-06
                         Temperature (°C)  =  25.00
                  Electrical balance (eq)  =  -8.324e-15
 Percent error, 100*(Cat-|An|)/(Cat+|An|)  =  -0.00
                               Iterations  =   1 (9 overall)
                                  Total H  = 1.110124e+02
                                  Total O  = 5.550622e+01

----------------------------Distribution of species----------------------------

                                               Log       Log       Log    mole V
   Species          Molality    Activity  Molality  Activity     Gamma   cm³/mol

   H+              1.236e-06   9.915e-07    -5.908    -6.004    -0.096      0.00
   OH-             1.421e-08   1.018e-08    -7.847    -7.992    -0.145     -3.55
   H2O             5.551e+01   9.976e-01     1.744    -0.001     0.000     18.07
Al            1.949e-02
   Al+3            1.949e-02   2.684e-03    -1.710    -2.571    -0.861    -40.87
   AlOH+2          0.000e+00   0.000e+00   -46.073   -46.568    -0.496     (0)  
   Al(OH)2+        0.000e+00   0.000e+00   -90.542   -90.666    -0.124     (0)  
   Al(OH)3         0.000e+00   0.000e+00  -145.481  -145.463     0.018     (0)  
   Al(OH)4-        0.000e+00   0.000e+00  -199.137  -199.260    -0.124     (0)  
Ca            1.984e-02
   Ca+2            1.984e-02   6.594e-03    -1.702    -2.181    -0.479    -17.25
   CaOH+           1.465e-09   1.101e-09    -8.834    -8.958    -0.124     (0)  
Cl            9.890e-02
   Cl-             9.890e-02   7.166e-02    -1.005    -1.145    -0.140     18.43
   HCl             2.057e-08   2.448e-08    -7.687    -7.611     0.075     (0)  
H(0)          0.000e+00
   H2              0.000e+00   0.000e+00   -41.123   -41.105     0.018     28.61
Na            7.549e-04
   Na+             7.549e-04   5.691e-04    -3.122    -3.245    -0.123     -0.96
   NaOH            5.564e-22   5.795e-22   -21.255   -21.237     0.018     (0)  
O(0)          1.291e-10
   O2              6.455e-11   6.724e-11   -10.190   -10.172     0.018     30.40

------------------------------Saturation indices-------------------------------

  Phase               SI** log IAP   log K(298 K,   1 atm)

  Al(OH)3(a)        4.64     15.44   10.80  Al(OH)3
  Gibbsite          7.33     15.44    8.11  Al(OH)3
  H2(g)           -38.00    -41.10   -3.10  H2
  H2O(g)           -1.50     -0.00    1.50  H2O
  Halite           -5.96     -4.39    1.57  NaCl
  O2(g)            -7.28    -10.17   -2.89  O2

**For a gas, SI = log10(fugacity). Fugacity = pressure * phi / 1 atm.
  For ideal gases, phi = 1.

------------------
End of simulation.
------------------

------------------------------------
Reading input data for simulation 3.
------------------------------------

