   Input file: is
  Output file: is.out
Database file: ../database/phreeqc.dat

------------------
Reading data base.
------------------

	SOLUTION_MASTER_SPECIES
	SOLUTION_SPECIES
	PHASES
	EXCHANGE_MASTER_SPECIES
	EXCHANGE_SPECIES
	SURFACE_MASTER_SPECIES
	SURFACE_SPECIES
	RATES
	END
------------------------------------
Reading input data for simulation 1.
------------------------------------

	database ../database/phreeqc.dat
	SOLUTION_MASTER_SPECIES
	          Co   Co+2   0.0   Co          58.9332     
	SOLUTION_SPECIES
	Co+2 = Co+2
	          log_k     0.000
	Co+2 + SO4-2 =  CoSO4
	          log_k    2.36  
	END
------------------
End of simulation.
------------------

------------------------------------
Reading input data for simulation 2.
------------------------------------

	SOLUTION 0
	 ph 3.3
	        pe        7.5
	 temp 25
	 units mmol/l
	 Ca 11.6
	 Mg 15.8
	 Na 9.4
	 K 0.2
	          Si      1.86
	 Fe 52.4
	 Mn 1.34
	 Al 10.5
	          Cd      5.2e-3
	 Cu 2.4
	 Co 0.2
	 Ni 0.06
	          Sr      1.5e-2
	 Zn 0.34
	 S(6) 100.0 charge
	 Cl 9.5
	 F       1.6  
	 C(4)    4.08
	END          
WARNING: Could not find element in database, Ni.
	Concentration is set to zero.
-------------------------------------------
Beginning of initial solution calculations.
-------------------------------------------

Initial solution 0.	

-----------------------------Solution composition------------------------------

	Elements           Molality       Moles

	Al                1.066e-02   1.066e-02
	C(4)              4.142e-03   4.142e-03
	Ca                1.178e-02   1.178e-02
	Cd                5.279e-06   5.279e-06
	Cl                9.643e-03   9.643e-03
	Co                2.030e-04   2.030e-04
	Cu                2.436e-03   2.436e-03
	F                 1.624e-03   1.624e-03
	Fe                5.319e-02   5.319e-02
	K                 2.030e-04   2.030e-04
	Mg                1.604e-02   1.604e-02
	Mn                1.360e-03   1.360e-03
	Na                9.542e-03   9.542e-03
	S(6)              1.014e-01   1.014e-01  Charge balance
	Si                1.888e-03   1.888e-03
	Sr                1.523e-05   1.523e-05
	Zn                3.451e-04   3.451e-04

----------------------------Description of solution----------------------------

                                       pH  =   3.300    
                                       pe  =   7.500    
       Specific Conductance (uS/cm, 25 oC) = 9118
                          Density (g/cm3)  =   1.00999
                        Activity of water  =   0.997
                           Ionic strength  =   2.130e-01
                       Mass of water (kg)  =   1.000e+00
                 Total alkalinity (eq/kg)  =  -1.694e-03
                       Total CO2 (mol/kg)  =   4.142e-03
                      Temperature (deg C)  =  25.00
                  Electrical balance (eq)  =   7.957e-17
 Percent error, 100*(Cat-|An|)/(Cat+|An|)  =   0.00
                               Iterations  =  11
                                  Total H  = 1.110217e+02
                                  Total O  = 5.592783e+01

----------------------------Distribution of species----------------------------

                                            Log       Log         Log     mole V
   Species          Molality    Activity  Molality  Activity     Gamma   cm3/mol

   H+              6.301e-04   5.012e-04    -3.201    -3.300    -0.099      0.00
   OH-             2.836e-11   1.992e-11   -10.547   -10.701    -0.154     (0)  
   H2O             5.551e+01   9.971e-01     1.744    -0.001     0.000     18.07
Al            1.066e-02
   AlSO4+          5.794e-03   4.312e-03    -2.237    -2.365    -0.128     (0)  
   Al(SO4)2-       2.608e-03   1.941e-03    -2.584    -2.712    -0.128     (0)  
   AlF+2           1.372e-03   4.210e-04    -2.863    -3.376    -0.513     (0)  
   Al+3            7.521e-04   9.580e-05    -3.124    -4.019    -0.895     (0)  
   AlF2+           1.246e-04   9.275e-05    -3.904    -4.033    -0.128     (0)  
   AlOH+2          6.170e-06   1.893e-06    -5.210    -5.723    -0.513     (0)  
   AlHSO4+2        6.246e-07   1.916e-07    -6.204    -6.718    -0.513     (0)  
   AlF3            4.886e-07   5.132e-07    -6.311    -6.290     0.021     (0)  
   Al(OH)2+        3.966e-08   2.952e-08    -7.402    -7.530    -0.128     (0)  
   AlF4-           1.207e-10   8.980e-11    -9.918   -10.047    -0.128     (0)  
   Al(OH)3         8.238e-12   8.652e-12   -11.084   -11.063     0.021     (0)  
   Al(OH)4-        4.359e-14   3.244e-14   -13.361   -13.489    -0.128     (0)  
   AlF5-2          2.039e-15   6.255e-16   -14.691   -15.204    -0.513     (0)  
   AlF6-3          3.924e-21   2.749e-22   -20.406   -21.561    -1.155     (0)  
C(4)          4.142e-03
   CO2             4.131e-03   4.339e-03    -2.384    -2.363     0.021     (0)  
   HCO3-           5.170e-06   3.839e-06    -5.287    -5.416    -0.129     24.29
   FeHCO3+         4.950e-06   3.684e-06    -5.305    -5.434    -0.128     (0)  
   MgHCO3+         1.579e-07   1.175e-07    -6.802    -6.930    -0.128     (0)  
   CaHCO3+         1.322e-07   9.815e-08    -6.879    -7.008    -0.129     (0)  
   MnHCO3+         1.126e-07   8.377e-08    -6.949    -7.077    -0.128     (0)  
   ZnHCO3+         2.841e-08   2.115e-08    -7.546    -7.675    -0.128     (0)  
   NaHCO3          1.356e-08   1.425e-08    -7.868    -7.846     0.021     (0)  
   SrHCO3+         2.081e-10   1.545e-10    -9.682    -9.811    -0.129     (0)  
   CdHCO3+         8.493e-11   6.321e-11   -10.071   -10.199    -0.128     (0)  
   FeCO3           7.873e-11   8.269e-11   -10.104   -10.083     0.021     (0)  
   MnCO3           6.652e-12   6.986e-12   -11.177   -11.156     0.021     (0)  
   ZnCO3           2.986e-12   3.136e-12   -11.525   -11.504     0.021     (0)  
   CO3-2           1.182e-12   3.592e-13   -11.928   -12.445    -0.517     -3.78
   CaCO3           1.151e-12   1.209e-12   -11.939   -11.917     0.021     (0)  
   MgCO3           8.539e-13   8.969e-13   -12.069   -12.047     0.021     (0)  
   NaCO3-          5.931e-14   4.414e-14   -13.227   -13.355    -0.128     (0)  
   SrCO3           5.746e-16   6.034e-16   -15.241   -15.219     0.021     (0)  
   CdCO3           1.415e-16   1.486e-16   -15.849   -15.828     0.021     (0)  
   Zn(CO3)2-2      7.850e-20   2.409e-20   -19.105   -19.618    -0.513     (0)  
   Cd(CO3)2-2      5.501e-25   1.688e-25   -24.260   -24.773    -0.513     (0)  
Ca            1.178e-02
   Ca+2            6.333e-03   2.004e-03    -2.198    -2.698    -0.500    -17.83
   CaSO4           5.419e-03   5.691e-03    -2.266    -2.245     0.021     (0)  
   CaHSO4+         2.245e-05   1.671e-05    -4.649    -4.777    -0.128     (0)  
   CaHCO3+         1.322e-07   9.815e-08    -6.879    -7.008    -0.129     (0)  
   CaF+            1.031e-08   7.671e-09    -7.987    -8.115    -0.128     (0)  
   CaCO3           1.151e-12   1.209e-12   -11.939   -11.917     0.021     (0)  
   CaOH+           8.889e-13   6.616e-13   -12.051   -12.179    -0.128     (0)  
Cd            5.279e-06
   CdSO4           2.035e-06   2.138e-06    -5.691    -5.670     0.021     (0)  
   Cd+2            1.697e-06   5.207e-07    -5.770    -6.283    -0.513     (0)  
   Cd(SO4)2-2      1.087e-06   3.337e-07    -5.964    -6.477    -0.513     (0)  
   CdCl+           4.496e-07   3.346e-07    -6.347    -6.475    -0.128     (0)  
   CdCl2           8.936e-09   9.385e-09    -8.049    -8.028     0.021     (0)  
   CdHCO3+         8.493e-11   6.321e-11   -10.071   -10.199    -0.128     (0)  
   CdCl3-          5.354e-11   3.984e-11   -10.271   -10.400    -0.128     (0)  
   CdOH+           1.158e-13   8.616e-14   -12.936   -13.065    -0.128     (0)  
   CdCO3           1.415e-16   1.486e-16   -15.849   -15.828     0.021     (0)  
   Cd(OH)2         8.765e-21   9.205e-21   -20.057   -20.036     0.021     (0)  
   Cd(CO3)2-2      5.501e-25   1.688e-25   -24.260   -24.773    -0.513     (0)  
   Cd(OH)3-        2.761e-30   2.055e-30   -29.559   -29.687    -0.128     (0)  
   Cd(OH)4-2       1.187e-40   0.000e+00   -39.925   -40.439    -0.513     (0)  
Cl            9.643e-03
   Cl-             9.513e-03   6.729e-03    -2.022    -2.172    -0.150     17.82
   FeCl+           1.198e-04   8.913e-05    -3.922    -4.050    -0.128     (0)  
   MnCl+           9.018e-06   6.712e-06    -5.045    -5.173    -0.128     (0)  
   ZnCl+           1.065e-06   7.924e-07    -5.973    -6.101    -0.128     (0)  
   CdCl+           4.496e-07   3.346e-07    -6.347    -6.475    -0.128     (0)  
   FeCl+2          1.919e-08   5.888e-09    -7.717    -8.230    -0.513     (0)  
   MnCl2           1.877e-08   1.971e-08    -7.727    -7.705     0.021     (0)  
   CdCl2           8.936e-09   9.385e-09    -8.049    -8.028     0.021     (0)  
   ZnCl2           5.316e-09   5.583e-09    -8.274    -8.253     0.021     (0)  
   FeCl2+          2.378e-10   1.770e-10    -9.624    -9.752    -0.128     (0)  
   ZnCl3-          5.664e-11   4.215e-11   -10.247   -10.375    -0.128     (0)  
   CdCl3-          5.354e-11   3.984e-11   -10.271   -10.400    -0.128     (0)  
   MnCl3-          4.909e-11   3.653e-11   -10.309   -10.437    -0.128     (0)  
   ZnCl4-2         4.633e-13   1.422e-13   -12.334   -12.847    -0.513     (0)  
   FeCl3           1.134e-13   1.191e-13   -12.945   -12.924     0.021     (0)  
Co            2.030e-04
   Co+2            1.040e-04   3.190e-05    -3.983    -4.496    -0.513     (0)  
   CoSO4           9.905e-05   1.040e-04    -4.004    -3.983     0.021     (0)  
Cu(1)         1.019e-08
   Cu+             1.019e-08   6.882e-09    -7.992    -8.162    -0.170     (0)  
Cu(2)         2.436e-03
   Cu+2            1.289e-03   4.147e-04    -2.890    -3.382    -0.492     (0)  
   CuSO4           1.148e-03   1.205e-03    -2.940    -2.919     0.021     (0)  
   CuOH+           1.155e-08   8.249e-09    -7.937    -8.084    -0.146     (0)  
   Cu(OH)2         3.265e-11   3.429e-11   -10.486   -10.465     0.021     (0)  
   Cu(OH)3-        5.523e-21   4.110e-21   -20.258   -20.386    -0.128     (0)  
   Cu(OH)4-2       5.318e-30   1.632e-30   -29.274   -29.787    -0.513     (0)  
F             1.624e-03
   AlF+2           1.372e-03   4.210e-04    -2.863    -3.376    -0.513     (0)  
   AlF2+           1.246e-04   9.275e-05    -3.904    -4.033    -0.128     (0)  
   F-              6.260e-07   4.395e-07    -6.203    -6.357    -0.154      2.94
   AlF3            4.886e-07   5.132e-07    -6.311    -6.290     0.021     (0)  
   HF              3.146e-07   3.304e-07    -6.502    -6.481     0.021     (0)  
   MgF+            1.021e-07   7.598e-08    -6.991    -7.119    -0.128     (0)  
   FeF+2           6.579e-08   2.019e-08    -7.182    -7.695    -0.513     (0)  
   FeF+            5.667e-08   4.217e-08    -7.247    -7.375    -0.128     (0)  
   CaF+            1.031e-08   7.671e-09    -7.987    -8.115    -0.128     (0)  
   NaF             1.589e-09   1.669e-09    -8.799    -8.778     0.021     (0)  
   MnF+            1.000e-09   7.445e-10    -9.000    -9.128    -0.128     (0)  
   FeF2+           4.746e-10   3.532e-10    -9.324    -9.452    -0.128     (0)  
   AlF4-           1.207e-10   8.980e-11    -9.918   -10.047    -0.128     (0)  
   HF2-            7.486e-13   5.571e-13   -12.126   -12.254    -0.128     (0)  
   FeF3            2.343e-13   2.460e-13   -12.630   -12.609     0.021     (0)  
   AlF5-2          2.039e-15   6.255e-16   -14.691   -15.204    -0.513     (0)  
   AlF6-3          3.924e-21   2.749e-22   -20.406   -21.561    -1.155     (0)  
   SiF6-2          4.502e-24   1.381e-24   -23.347   -23.860    -0.513     (0)  
Fe(2)         5.318e-02
   Fe+2            2.982e-02   9.596e-03    -1.525    -2.018    -0.492     (0)  
   FeSO4           2.313e-02   2.429e-02    -1.636    -1.615     0.021     (0)  
   FeCl+           1.198e-04   8.913e-05    -3.922    -4.050    -0.128     (0)  
   FeHSO4+         1.075e-04   8.002e-05    -3.969    -4.097    -0.128     (0)  
   FeHCO3+         4.950e-06   3.684e-06    -5.305    -5.434    -0.128     (0)  
   FeF+            5.667e-08   4.217e-08    -7.247    -7.375    -0.128     (0)  
   FeOH+           8.111e-09   6.037e-09    -8.091    -8.219    -0.128     (0)  
   FeCO3           7.873e-11   8.269e-11   -10.104   -10.083     0.021     (0)  
Fe(3)         9.846e-06
   FeSO4+          6.077e-06   4.523e-06    -5.216    -5.345    -0.128     (0)  
   Fe(SO4)2-       1.893e-06   1.409e-06    -5.723    -5.851    -0.128     (0)  
   FeOH+2          1.213e-06   3.722e-07    -5.916    -6.429    -0.513     (0)  
   Fe(OH)2+        3.295e-07   2.452e-07    -6.482    -6.610    -0.128     (0)  
   Fe+3            2.275e-07   2.898e-08    -6.643    -7.538    -0.895     (0)  
   FeF+2           6.579e-08   2.019e-08    -7.182    -7.695    -0.513     (0)  
   FeHSO4+2        1.978e-08   6.070e-09    -7.704    -8.217    -0.513     (0)  
   FeCl+2          1.919e-08   5.888e-09    -7.717    -8.230    -0.513     (0)  
   FeF2+           4.746e-10   3.532e-10    -9.324    -9.452    -0.128     (0)  
   Fe2(OH)2+4      4.208e-10   3.729e-12    -9.376   -11.428    -2.052     (0)  
   FeCl2+          2.378e-10   1.770e-10    -9.624    -9.752    -0.128     (0)  
   Fe(OH)3         5.983e-11   6.284e-11   -10.223   -10.202     0.021     (0)  
   Fe3(OH)4+5      3.077e-13   1.910e-16   -12.512   -15.719    -3.207     (0)  
   FeF3            2.343e-13   2.460e-13   -12.630   -12.609     0.021     (0)  
   FeCl3           1.134e-13   1.191e-13   -12.945   -12.924     0.021     (0)  
   Fe(OH)4-        1.532e-16   1.140e-16   -15.815   -15.943    -0.128     (0)  
H(0)          3.386e-25
   H2              1.693e-25   1.778e-25   -24.771   -24.750     0.021     (0)  
K             2.030e-04
   K+              1.854e-04   1.311e-04    -3.732    -3.882    -0.150      9.03
   KSO4-           1.762e-05   1.312e-05    -4.754    -4.882    -0.128     (0)  
   KOH             8.613e-16   9.046e-16   -15.065   -15.044     0.021     (0)  
Mg            1.604e-02
   MgSO4           8.313e-03   8.731e-03    -2.080    -2.059     0.021     (0)  
   Mg+2            7.725e-03   2.616e-03    -2.112    -2.582    -0.470    -21.15
   MgHCO3+         1.579e-07   1.175e-07    -6.802    -6.930    -0.128     (0)  
   MgF+            1.021e-07   7.598e-08    -6.991    -7.119    -0.128     (0)  
   MgOH+           2.539e-11   1.890e-11   -10.595   -10.724    -0.128     (0)  
   MgCO3           8.539e-13   8.969e-13   -12.069   -12.047     0.021     (0)  
Mn(2)         1.360e-03
   Mn+2            7.609e-04   2.448e-04    -3.119    -3.611    -0.492     (0)  
   MnSO4           5.901e-04   6.198e-04    -3.229    -3.208     0.021     (0)  
   MnCl+           9.018e-06   6.712e-06    -5.045    -5.173    -0.128     (0)  
   MnHCO3+         1.126e-07   8.377e-08    -6.949    -7.077    -0.128     (0)  
   MnCl2           1.877e-08   1.971e-08    -7.727    -7.705     0.021     (0)  
   MnF+            1.000e-09   7.445e-10    -9.000    -9.128    -0.128     (0)  
   MnCl3-          4.909e-11   3.653e-11   -10.309   -10.437    -0.128     (0)  
   MnOH+           1.682e-11   1.252e-11   -10.774   -10.902    -0.128     (0)  
   MnCO3           6.652e-12   6.986e-12   -11.177   -11.156     0.021     (0)  
Mn(3)         3.415e-21
   Mn+3            3.415e-21   2.393e-22   -20.467   -21.621    -1.155     (0)  
Na            9.542e-03
   Na+             8.909e-03   6.599e-03    -2.050    -2.181    -0.130     -1.21
   NaSO4-          6.326e-04   4.708e-04    -3.199    -3.327    -0.128     (0)  
   NaHCO3          1.356e-08   1.425e-08    -7.868    -7.846     0.021     (0)  
   NaF             1.589e-09   1.669e-09    -8.799    -8.778     0.021     (0)  
   NaOH            8.259e-14   8.674e-14   -13.083   -13.062     0.021     (0)  
   NaCO3-          5.931e-14   4.414e-14   -13.227   -13.355    -0.128     (0)  
O(0)          0.000e+00
   O2              0.000e+00   0.000e+00   -42.904   -42.883     0.021     (0)  
S(6)          1.014e-01
   SO4-2           4.975e-02   1.423e-02    -1.303    -1.847    -0.543     13.98
   FeSO4           2.313e-02   2.429e-02    -1.636    -1.615     0.021     (0)  
   MgSO4           8.313e-03   8.731e-03    -2.080    -2.059     0.021     (0)  
   AlSO4+          5.794e-03   4.312e-03    -2.237    -2.365    -0.128     (0)  
   CaSO4           5.419e-03   5.691e-03    -2.266    -2.245     0.021     (0)  
   Al(SO4)2-       2.608e-03   1.941e-03    -2.584    -2.712    -0.128     (0)  
   CuSO4           1.148e-03   1.205e-03    -2.940    -2.919     0.021     (0)  
   HSO4-           9.320e-04   6.936e-04    -3.031    -3.159    -0.128     (0)  
   NaSO4-          6.326e-04   4.708e-04    -3.199    -3.327    -0.128     (0)  
   MnSO4           5.901e-04   6.198e-04    -3.229    -3.208     0.021     (0)  
   ZnSO4           1.390e-04   1.460e-04    -3.857    -3.836     0.021     (0)  
   FeHSO4+         1.075e-04   8.002e-05    -3.969    -4.097    -0.128     (0)  
   CoSO4           9.905e-05   1.040e-04    -4.004    -3.983     0.021     (0)  
   Zn(SO4)2-2      5.506e-05   1.689e-05    -4.259    -4.772    -0.513     (0)  
   CaHSO4+         2.245e-05   1.671e-05    -4.649    -4.777    -0.128     (0)  
   KSO4-           1.762e-05   1.312e-05    -4.754    -4.882    -0.128     (0)  
   SrSO4           6.954e-06   7.304e-06    -5.158    -5.136     0.021     (0)  
   FeSO4+          6.077e-06   4.523e-06    -5.216    -5.345    -0.128     (0)  
   CdSO4           2.035e-06   2.138e-06    -5.691    -5.670     0.021     (0)  
   Fe(SO4)2-       1.893e-06   1.409e-06    -5.723    -5.851    -0.128     (0)  
   Cd(SO4)2-2      1.087e-06   3.337e-07    -5.964    -6.477    -0.513     (0)  
   AlHSO4+2        6.246e-07   1.916e-07    -6.204    -6.718    -0.513     (0)  
   FeHSO4+2        1.978e-08   6.070e-09    -7.704    -8.217    -0.513     (0)  
Si            1.888e-03
   H4SiO4          1.888e-03   1.983e-03    -2.724    -2.703     0.021     56.00
   H3SiO4-         7.839e-10   5.834e-10    -9.106    -9.234    -0.128     (0)  
   H2SiO4-2        2.581e-19   7.918e-20   -18.588   -19.101    -0.513     (0)  
   SiF6-2          4.502e-24   1.381e-24   -23.347   -23.860    -0.513     (0)  
Sr            1.523e-05
   Sr+2            8.272e-06   2.631e-06    -5.082    -5.580    -0.497    -18.61
   SrSO4           6.954e-06   7.304e-06    -5.158    -5.136     0.021     (0)  
   SrHCO3+         2.081e-10   1.545e-10    -9.682    -9.811    -0.129     (0)  
   SrCO3           5.746e-16   6.034e-16   -15.241   -15.219     0.021     (0)  
   SrOH+           3.653e-16   2.685e-16   -15.437   -15.571    -0.134     (0)  
Zn            3.451e-04
   Zn+2            1.499e-04   4.376e-05    -3.824    -4.359    -0.535     (0)  
   ZnSO4           1.390e-04   1.460e-04    -3.857    -3.836     0.021     (0)  
   Zn(SO4)2-2      5.506e-05   1.689e-05    -4.259    -4.772    -0.513     (0)  
   ZnCl+           1.065e-06   7.924e-07    -5.973    -6.101    -0.128     (0)  
   ZnHCO3+         2.841e-08   2.115e-08    -7.546    -7.675    -0.128     (0)  
   ZnCl2           5.316e-09   5.583e-09    -8.274    -8.253     0.021     (0)  
   ZnOH+           1.282e-10   9.545e-11    -9.892   -10.020    -0.128     (0)  
   ZnCl3-          5.664e-11   4.215e-11   -10.247   -10.375    -0.128     (0)  
   ZnCO3           2.986e-12   3.136e-12   -11.525   -11.504     0.021     (0)  
   ZnCl4-2         4.633e-13   1.422e-13   -12.334   -12.847    -0.513     (0)  
   Zn(OH)2         2.076e-15   2.180e-15   -14.683   -14.662     0.021     (0)  
   Zn(CO3)2-2      7.850e-20   2.409e-20   -19.105   -19.618    -0.513     (0)  
   Zn(OH)3-        1.843e-23   1.372e-23   -22.735   -22.863    -0.128     (0)  
   Zn(OH)4-2       1.409e-32   4.324e-33   -31.851   -32.364    -0.513     (0)  

------------------------------Saturation indices-------------------------------

	Phase               SI   log IAP   log K(298 K,   1 atm)

	Al(OH)3(a)       -4.92      5.88   10.80  Al(OH)3
	Albite           -5.77    -23.77  -18.00  NaAlSi3O8
	Alunite           1.56      0.16   -1.40  KAl3(SO4)2(OH)6
	Anhydrite        -0.18     -4.54   -4.36  CaSO4
	Anorthite       -15.36    -35.07  -19.71  CaAl2Si2O8
	Aragonite        -6.81    -15.14   -8.34  CaCO3
	Ca-Montmorillonite  -3.35    -48.38  -45.03  Ca0.165Al2.33Si3.67O10(OH)2
	Calcite          -6.66    -15.14   -8.48  CaCO3
	Cd(OH)2         -13.34      0.31   13.65  Cd(OH)2
	CdSiO3          -11.44     -2.38    9.06  CdSiO3
	CdSO4            -8.03     -8.13   -0.10  CdSO4
	Celestite        -0.79     -7.43   -6.63  SrSO4
	Chalcedony        0.85     -2.70   -3.55  SiO2
	Chlorite(14A)   -44.64     23.74   68.38  Mg5Al2Si3O10(OH)8
	Chrysotile      -25.55      6.65   32.20  Mg3Si2O5(OH)4
	CO2(g)           -0.89     -2.36   -1.47  CO2
	Dolomite        -13.08    -30.17  -17.09  CaMg(CO3)2
	Fe(OH)3(a)       -2.53      2.36    4.89  Fe(OH)3
	Fluorite         -4.81    -15.41  -10.60  CaF2
	Gibbsite         -2.23      5.88    8.11  Al(OH)3
	Goethite          3.36      2.36   -1.00  FeOOH
	Gypsum            0.03     -4.55   -4.58  CaSO4:2H2O
	H2(g)           -21.60    -24.75   -3.15  H2
	H2O(g)           -1.51     -0.00    1.51  H2O
	Halite           -5.93     -4.35    1.58  NaCl
	Hausmannite     -30.47     30.56   61.03  Mn3O4
	Hematite          8.73      4.72   -4.01  Fe2O3
	Illite           -7.14    -47.40  -40.27  K0.6Mg0.25Al2.3Si3.5O10(OH)2
	Jarosite-K       -1.19    -10.40   -9.21  KFe3(SO4)2(OH)6
	K-feldspar       -4.90    -25.47  -20.57  KAlSi3O8
	K-mica           -3.75      8.95   12.70  KAl3Si3O10(OH)2
	Kaolinite        -1.08      6.36    7.43  Al2Si2O5(OH)4
	Manganite       -11.55     13.79   25.34  MnOOH
	Melanterite      -1.66     -3.87   -2.21  FeSO4:7H2O
	O2(g)           -39.99    -42.88   -2.89  O2
	Otavite          -6.63    -18.73  -12.10  CdCO3
	Pyrochroite     -12.21      2.99   15.20  Mn(OH)2
	Pyrolusite      -16.79     24.59   41.38  MnO2
	Quartz            1.28     -2.70   -3.98  SiO2
	Rhodochrosite    -4.93    -16.06  -11.13  MnCO3
	Sepiolite       -15.83     -0.07   15.76  Mg2Si3O7.5OH:3H2O
	Sepiolite(d)    -18.73     -0.07   18.66  Mg2Si3O7.5OH:3H2O
	Siderite         -3.57    -14.46  -10.89  FeCO3
	SiO2(a)           0.01     -2.70   -2.71  SiO2
	Smithsonite      -6.80    -16.80  -10.00  ZnCO3
	Strontianite     -8.75    -18.02   -9.27  SrCO3
	Talc            -20.15      1.25   21.40  Mg3Si4O10(OH)2
	Willemite       -13.55      1.78   15.33  Zn2SiO4
	Zn(OH)2(e)       -9.26      2.24   11.50  Zn(OH)2


------------------
End of simulation.
------------------

------------------------------------
Reading input data for simulation 3.
------------------------------------

	SOLUTION 1
	pH        7.1
	pe        5
	redox     O(0)/O(-2)
	temp 	  26
	density   1.001
	units     mmol/kgw
	pressure  1.001
	water    0.99
	Na	  1
	S(6)	  0.5 as S charge
	S(-2)     0.5 gfw 32.1
	O(0)      0.25    	O2(g)  -0.7
	Fe	  0.001 	S(6)/S(-2) 
	N	  0.002         pe
	END
-------------------------------------------
Beginning of initial solution calculations.
-------------------------------------------

Initial solution 1.	

-----------------------------Solution composition------------------------------

	Elements           Molality       Moles

	Fe                1.000e-06   9.900e-07
	N                 2.000e-06   1.980e-06
	Na                1.000e-03   9.900e-04
	O(0)              5.028e-04   4.978e-04  Equilibrium with O2(g)
	S(-2)             5.000e-04   4.950e-04
	S(6)              3.488e-04   3.453e-04  Charge balance

----------------------------Description of solution----------------------------

                                       pH  =   7.100    
                                       pe  =   5.000    
       Specific Conductance (uS/cm, 26 oC) = 122
                          Density (g/cm3)  =   0.99690
                        Activity of water  =   1.000
                           Ionic strength  =   1.346e-03
                       Mass of water (kg)  =   9.900e-01
                 Total alkalinity (eq/kg)  =   3.045e-04
                    Total carbon (mol/kg)  =   0.000e+00
                       Total CO2 (mol/kg)  =   0.000e+00
                      Temperature (deg C)  =  26.00
                           Pressure (atm)  =  1.00
                  Electrical balance (eq)  =  -5.421e-19
 Percent error, 100*(Cat-|An|)/(Cat+|An|)  =  -0.00
                               Iterations  =   8
                                  Total H  = 1.099030e+02
                                  Total O  = 5.495303e+01

---------------------------------Redox couples---------------------------------

	Redox couple             pe  Eh (volts)

	O(-2)/O(0)          13.4376      0.7976
	S(-2)/S(6)          -3.7987     -0.2255

----------------------------Distribution of species----------------------------

                                            Log       Log         Log     mole V
   Species          Molality    Activity  Molality  Activity     Gamma   cm3/mol

   OH-             1.416e-07   1.359e-07    -6.849    -6.867    -0.018     (0)  
   H+              8.258e-08   7.943e-08    -7.083    -7.100    -0.017      0.00
   H2O             5.551e+01   1.000e+00     1.744    -0.000     0.000     18.07
Fe(2)         1.000e-06
   Fe(HS)2         9.530e-07   9.533e-07    -6.021    -6.021     0.000     (0)  
   Fe(HS)3-        3.138e-08   3.012e-08    -7.503    -7.521    -0.018     (0)  
   Fe+2            1.492e-08   1.270e-08    -7.826    -7.896    -0.070     (0)  
   FeSO4           6.787e-10   6.789e-10    -9.168    -9.168     0.000     (0)  
   FeOH+           5.676e-11   5.448e-11   -10.246   -10.264    -0.018     (0)  
   FeHSO4+         3.707e-16   3.558e-16   -15.431   -15.449    -0.018     (0)  
Fe(3)         2.095e-16
   Fe(OH)3         1.287e-16   1.287e-16   -15.891   -15.890     0.000     (0)  
   Fe(OH)2+        7.917e-17   7.598e-17   -16.101   -16.119    -0.018     (0)  
   Fe(OH)4-        1.603e-18   1.538e-18   -17.795   -17.813    -0.018     (0)  
   FeOH+2          2.069e-20   1.755e-20   -19.684   -19.756    -0.071     (0)  
   FeSO4+          7.019e-25   6.737e-25   -24.154   -24.172    -0.018     (0)  
   Fe+3            2.890e-25   2.036e-25   -24.539   -24.691    -0.152     (0)  
   Fe(SO4)2-       4.550e-27   4.366e-27   -26.342   -26.360    -0.018     (0)  
   FeHSO4+2        1.689e-31   1.433e-31   -30.772   -30.844    -0.071     (0)  
   Fe2(OH)2+4      1.536e-38   7.957e-39   -37.814   -38.099    -0.286     (0)  
   Fe3(OH)4+5      0.000e+00   0.000e+00   -51.492   -51.938    -0.446     (0)  
H(0)          0.000e+00
   H2              0.000e+00   0.000e+00   -44.230   -44.229     0.000     (0)  
N(-3)         1.214e-31
   NH4+            1.200e-31   1.151e-31   -30.921   -30.939    -0.018     17.93
   NH3             8.858e-34   8.861e-34   -33.053   -33.053     0.000     (0)  
   NH4SO4-         4.560e-34   4.377e-34   -33.341   -33.359    -0.018     (0)  
N(0)          2.000e-06
   N2              1.000e-06   1.000e-06    -6.000    -6.000     0.000     (0)  
N(3)          5.288e-35
   NO2-            5.288e-35   5.072e-35   -34.277   -34.295    -0.018     (0)  
N(5)          2.887e-39
   NO3-            2.887e-39   2.770e-39   -38.540   -38.558    -0.018     29.11
Na            1.000e-03
   Na+             9.985e-04   9.585e-04    -3.001    -3.018    -0.018     -1.11
   NaSO4-          1.487e-06   1.427e-06    -5.828    -5.846    -0.018     (0)  
   NaOH            7.970e-11   7.972e-11   -10.099   -10.098     0.000     (0)  
O(0)          5.028e-04
   O2              2.514e-04   2.515e-04    -3.600    -3.599     0.000     (0)  
S(-2)         5.000e-04
   HS-             3.024e-04   2.902e-04    -3.519    -3.537    -0.018     (0)  
   H2S             1.956e-04   1.956e-04    -3.709    -3.709     0.000     (0)  
   Fe(HS)2         9.530e-07   9.533e-07    -6.021    -6.021     0.000     (0)  
   Fe(HS)3-        3.138e-08   3.012e-08    -7.503    -7.521    -0.018     (0)  
   S-2             5.558e-10   4.724e-10    -9.255    -9.326    -0.071     (0)  
S(6)          3.488e-04
   SO4-2           3.473e-04   2.951e-04    -3.459    -3.530    -0.071     14.21
   NaSO4-          1.487e-06   1.427e-06    -5.828    -5.846    -0.018     (0)  
   HSO4-           2.427e-09   2.330e-09    -8.615    -8.633    -0.018     (0)  
   FeSO4           6.787e-10   6.789e-10    -9.168    -9.168     0.000     (0)  
   FeHSO4+         3.707e-16   3.558e-16   -15.431   -15.449    -0.018     (0)  
   FeSO4+          7.019e-25   6.737e-25   -24.154   -24.172    -0.018     (0)  
   Fe(SO4)2-       4.550e-27   4.366e-27   -26.342   -26.360    -0.018     (0)  
   FeHSO4+2        1.689e-31   1.433e-31   -30.772   -30.844    -0.071     (0)  
   NH4SO4-         4.560e-34   4.377e-34   -33.341   -33.359    -0.018     (0)  

------------------------------Saturation indices-------------------------------

	Phase               SI   log IAP   log K(299 K,   1 atm)

	Fe(OH)3(a)       -8.28     -3.39    4.89  Fe(OH)3
	FeS(ppt)         -0.42     -4.33   -3.92  FeS
	Goethite         -2.36     -3.39   -1.04  FeOOH
	H2(g)           -41.08    -44.23   -3.15  H2
	H2O(g)           -1.48     -0.00    1.48  H2O
	H2S(g)           -2.70     -3.71   -1.01  H2S
	Hematite         -2.70     -6.78   -4.08  Fe2O3
	Mackinawite       0.31     -4.33   -4.65  FeS
	Melanterite      -9.23    -11.43   -2.20  FeSO4:7H2O
	N2(g)            -2.74     -6.00   -3.26  N2
	NH3(g)          -34.80    -33.05    1.75  NH3
	O2(g)            -0.70     -3.60   -2.90  O2
	Pyrite           44.56     26.10  -18.45  FeS2
	Sulfur           32.51     37.37    4.86  S


------------------
End of simulation.
------------------

------------------------------------
Reading input data for simulation 4.
------------------------------------

	use solution 1
	equilibrium_phases 1
		calcite 0 10
	end
-----------------------------------------
Beginning of batch-reaction calculations.
-----------------------------------------

Reaction step 1.

Using solution 1.	
Using pure phase assemblage 1.	

-------------------------------Phase assemblage--------------------------------

                                                      Moles in assemblage
Phase               SI  log IAP  log K(T, P)   Initial       Final       Delta

Calcite          -0.00    -8.49     -8.49    1.000e+01   1.000e+01  -3.443e-04

-----------------------------Solution composition------------------------------

	Elements           Molality       Moles

	C                 3.478e-04   3.443e-04
	Ca                3.478e-04   3.443e-04
	Fe                1.000e-06   9.900e-07
	N                 2.000e-06   1.980e-06
	Na                1.000e-03   9.900e-04
	S                 8.488e-04   8.403e-04

----------------------------Description of solution----------------------------

                                       pH  =   8.932      Charge balance
                                       pe  =  -5.858      Adjusted to redox equilibrium
       Specific Conductance (uS/cm, 26 oC) = 195
                          Density (g/cm3)  =   0.99694
                        Activity of water  =   1.000
                           Ionic strength  =   2.436e-03
                       Mass of water (kg)  =   9.900e-01
                 Total alkalinity (eq/kg)  =   7.483e-04
                       Total CO2 (mol/kg)  =   3.474e-04
                      Temperature (deg C)  =  26.00
                           Pressure (atm)  =  1.00
                  Electrical balance (eq)  =  -3.184e-14
 Percent error, 100*(Cat-|An|)/(Cat+|An|)  =  -0.00
                               Iterations  =  25
                                  Total H  = 1.099030e+02
                                  Total O  = 5.495407e+01

----------------------------Distribution of species----------------------------

                                            Log       Log         Log     mole V
   Species          Molality    Activity  Molality  Activity     Gamma   cm3/mol

   OH-             9.758e-06   9.238e-06    -5.011    -5.034    -0.024     (0)  
   H+              1.229e-09   1.168e-09    -8.910    -8.932    -0.022      0.00
   H2O             5.551e+01   1.000e+00     1.744    -0.000     0.000     18.07
C(-4)         3.659e-07
   CH4             3.659e-07   3.661e-07    -6.437    -6.436     0.000     (0)  
C(4)          3.474e-04
   HCO3-           3.239e-04   3.071e-04    -3.490    -3.513    -0.023     24.41
   CO3-2           1.556e-05   1.258e-05    -4.808    -4.900    -0.093     -3.50
   CaCO3           5.602e-06   5.605e-06    -5.252    -5.251     0.000     (0)  
   CaHCO3+         1.091e-06   1.034e-06    -5.962    -5.985    -0.023     (0)  
   CO2             7.967e-07   7.972e-07    -6.099    -6.098     0.000     (0)  
   NaCO3-          2.458e-07   2.328e-07    -6.609    -6.633    -0.024     (0)  
   NaHCO3          1.632e-07   1.633e-07    -6.787    -6.787     0.000     (0)  
   FeCO3           2.638e-09   2.640e-09    -8.579    -8.578     0.000     (0)  
   FeHCO3+         2.838e-10   2.688e-10    -9.547    -9.571    -0.024     (0)  
Ca            3.478e-04
   Ca+2            3.219e-04   2.600e-04    -3.492    -3.585    -0.093    -17.60
   CaSO4           1.918e-05   1.919e-05    -4.717    -4.717     0.000     (0)  
   CaCO3           5.602e-06   5.605e-06    -5.252    -5.251     0.000     (0)  
   CaHCO3+         1.091e-06   1.034e-06    -5.962    -5.985    -0.023     (0)  
   CaOH+           3.899e-08   3.693e-08    -7.409    -7.433    -0.024     (0)  
   CaHSO4+         1.405e-13   1.330e-13   -12.852   -12.876    -0.024     (0)  
Fe(2)         1.000e-06
   Fe(HS)2         9.451e-07   9.457e-07    -6.025    -6.024     0.000     (0)  
   Fe(HS)3-        3.786e-08   3.586e-08    -7.422    -7.445    -0.024     (0)  
   Fe+2            1.081e-08   8.751e-09    -7.966    -8.058    -0.092     (0)  
   FeOH+           2.694e-09   2.551e-09    -8.570    -8.593    -0.024     (0)  
   FeCO3           2.638e-09   2.640e-09    -8.579    -8.578     0.000     (0)  
   FeSO4           5.806e-10   5.809e-10    -9.236    -9.236     0.000     (0)  
   FeHCO3+         2.838e-10   2.688e-10    -9.547    -9.571    -0.024     (0)  
   FeHSO4+         4.728e-18   4.478e-18   -17.325   -17.349    -0.024     (0)  
Fe(3)         4.533e-13
   Fe(OH)3         2.427e-13   2.429e-13   -12.615   -12.615     0.000     (0)  
   Fe(OH)4-        2.084e-13   1.973e-13   -12.681   -12.705    -0.024     (0)  
   Fe(OH)2+        2.227e-15   2.109e-15   -14.652   -14.676    -0.024     (0)  
   FeOH+2          8.908e-21   7.166e-21   -20.050   -20.145    -0.094     (0)  
   FeSO4+          5.306e-27   5.025e-27   -26.275   -26.299    -0.024     (0)  
   Fe+3            1.928e-27   1.223e-27   -26.715   -26.913    -0.198     (0)  
   Fe(SO4)2-       4.272e-29   4.046e-29   -28.369   -28.393    -0.024     (0)  
   FeHSO4+2        1.954e-35   1.572e-35   -34.709   -34.804    -0.094     (0)  
   Fe2(OH)2+4      3.167e-39   1.326e-39   -38.499   -38.877    -0.378     (0)  
   Fe3(OH)4+5      0.000e+00   0.000e+00   -50.683   -51.273    -0.591     (0)  
H(0)          9.962e-10
   H2              4.981e-10   4.984e-10    -9.303    -9.302     0.000     (0)  
N(-3)         1.540e-06
   NH4+            1.027e-06   9.714e-07    -5.988    -6.013    -0.024     17.94
   NH3             5.081e-07   5.084e-07    -6.294    -6.294     0.000     (0)  
   NH4SO4-         4.844e-09   4.587e-09    -8.315    -8.338    -0.024     (0)  
N(0)          4.600e-07
   N2              2.300e-07   2.301e-07    -6.638    -6.638     0.000     (0)  
N(3)          0.000e+00
   NO2-            0.000e+00   0.000e+00   -59.835   -59.859    -0.024     (0)  
N(5)          0.000e+00
   NO3-            0.000e+00   0.000e+00   -82.150   -82.174    -0.024     29.12
Na            1.000e-03
   Na+             9.977e-04   9.453e-04    -3.001    -3.024    -0.023     -1.09
   NaSO4-          1.845e-06   1.748e-06    -5.734    -5.758    -0.024     (0)  
   NaCO3-          2.458e-07   2.328e-07    -6.609    -6.633    -0.024     (0)  
   NaHCO3          1.632e-07   1.633e-07    -6.787    -6.787     0.000     (0)  
   NaOH            5.342e-09   5.345e-09    -8.272    -8.272     0.000     (0)  
O(0)          0.000e+00
   O2              0.000e+00   0.000e+00   -73.454   -73.453     0.000     (0)  
S(-2)         3.734e-04
   HS-             3.679e-04   3.482e-04    -3.434    -3.458    -0.024     (0)  
   H2S             3.451e-06   3.453e-06    -5.462    -5.462     0.000     (0)  
   Fe(HS)2         9.451e-07   9.457e-07    -6.025    -6.024     0.000     (0)  
   S-2             4.776e-08   3.854e-08    -7.321    -7.414    -0.093     (0)  
   Fe(HS)3-        3.786e-08   3.586e-08    -7.422    -7.445    -0.024     (0)  
S(6)          4.754e-04
   SO4-2           4.544e-04   3.666e-04    -3.343    -3.436    -0.093     14.26
   CaSO4           1.918e-05   1.919e-05    -4.717    -4.717     0.000     (0)  
   NaSO4-          1.845e-06   1.748e-06    -5.734    -5.758    -0.024     (0)  
   NH4SO4-         4.844e-09   4.587e-09    -8.315    -8.338    -0.024     (0)  
   FeSO4           5.806e-10   5.809e-10    -9.236    -9.236     0.000     (0)  
   HSO4-           4.494e-11   4.256e-11   -10.347   -10.371    -0.024     (0)  
   CaHSO4+         1.405e-13   1.330e-13   -12.852   -12.876    -0.024     (0)  
   FeHSO4+         4.728e-18   4.478e-18   -17.325   -17.349    -0.024     (0)  
   FeSO4+          5.306e-27   5.025e-27   -26.275   -26.299    -0.024     (0)  
   Fe(SO4)2-       4.272e-29   4.046e-29   -28.369   -28.393    -0.024     (0)  
   FeHSO4+2        1.954e-35   1.572e-35   -34.709   -34.804    -0.094     (0)  

------------------------------Saturation indices-------------------------------

	Phase               SI   log IAP   log K(299 K,   1 atm)

	Anhydrite        -2.66     -7.02   -4.37  CaSO4
	Aragonite        -0.14     -8.49   -8.34  CaCO3
	Calcite          -0.00     -8.49   -8.49  CaCO3
	CH4(g)           -3.57     -6.44   -2.87  CH4
	CO2(g)           -4.62     -6.10   -1.48  CO2
	Fe(OH)3(a)       -5.01     -0.12    4.89  Fe(OH)3
	FeS(ppt)          1.33     -2.58   -3.91  FeS
	Goethite          0.92     -0.12   -1.04  FeOOH
	Gypsum           -2.44     -7.02   -4.58  CaSO4:2H2O
	H2(g)            -6.15     -9.30   -3.15  H2
	H2O(g)           -1.48     -0.00    1.48  H2O
	H2S(g)           -4.45     -5.46   -1.01  H2S
	Hematite          3.85     -0.23   -4.08  Fe2O3
	Mackinawite       2.06     -2.58   -4.65  FeS
	Melanterite      -9.30    -11.49   -2.20  FeSO4:7H2O
	N2(g)            -3.37     -6.64   -3.26  N2
	NH3(g)           -8.04     -6.29    1.75  NH3
	O2(g)           -70.55    -73.45   -2.90  O2
	Pyrite            9.63     -8.83  -18.45  FeS2
	Siderite         -2.06    -12.96  -10.90  FeCO3
	Sulfur           -4.17      0.69    4.86  S


------------------
End of simulation.
------------------

------------------------------------
Reading input data for simulation 5.
------------------------------------

-----------
End of run.
-----------

