   Input file: jgbcol
  Output file: jgbcol.out
Database file: ../database/phreeqc.dat

------------------
Reading data base.
------------------

	SOLUTION_MASTER_SPECIES
	SOLUTION_SPECIES
	PHASES
	EXCHANGE_MASTER_SPECIES
	EXCHANGE_SPECIES
	SURFACE_MASTER_SPECIES
	SURFACE_SPECIES
	RATES
	END
------------------------------------
Reading input data for simulation 1.
------------------------------------

	DATABASE ../database/phreeqc.dat
	knobs
		logfile
	PRINT
		status false
	KNOBS
	SOLUTION 0
		ph	3.3
		temp	25
		units mmol/l
		Ca	11.6
		Mg	15.8
		Na	9.4
		K	0.2
		Fe	52.4
		Mn	1.34
		Al	10.5
		Cu	2.4
		Zn	0.33
		S(6)	100 	charge
		Cl	9.5
		C(4)	0.1	CO2(g)  -3.5
	SOLUTION 1-5
		ph	7.19
		temp	25
		units mmol/l
		O(0)	0.22
		Ca	1.2	charge
		Mg	0.37
		Na	0.96
		K	0.03
		Fe	3.5e-7	mol/l
		Mn	1.0e-7	mol/l
		Al	1.8e-6  mol/l
		Cu	1.5e-7	mol/l
		Zn	2.5e-7	mol/l
		S(6)	0.7
		Cl	0.48
		Alkalinity	2.3
	PURE_PHASES 1-5
		MnO2		0.0	0.045
		Fe(OH)3		0.0	0.73
		Calcite		0.0	0.14
		Gypsum 		0.0	0.0
		Al(OH)3(a)	0.0	0.0
		AlOHSO4		0.0	0.0
	USE PURE_PHASES none
	ADVECTION
		cells		5
		shifts		25
		print_frequency	5
	PHASES
		Fe(OH)3
		Fe(OH)3 + 3 H+ = Fe+3 + 3 H2O                                                 
		log_k 4.891
		MnO2
		MnO2 + 4 H+ + 2 e- = Mn+2 + 2 H2O                                          
		log_k 		41.380
		delta_h   	-65.110 kcal
		Al(OH)3(a)
		Al(OH)3 + 3H+ = Al+3 + 3H2O 
		log_k		10.8
		delta_h	-26.5 kcal
		AlOHSO4
		AlOHSO4 + H+ = Al+3 + SO4-2 + H2O 
		log_k		-2.2
	END
-------------------------------------------
Beginning of initial solution calculations.
-------------------------------------------

Initial solution 0.	

-----------------------------Solution composition------------------------------

	Elements           Molality       Moles

	Al                1.065e-02   1.065e-02
	C(4)              1.028e-05   1.028e-05  Equilibrium with CO2(g)
	Ca                1.177e-02   1.177e-02
	Cl                9.640e-03   9.640e-03
	Cu                2.435e-03   2.435e-03
	Fe                5.317e-02   5.317e-02
	K                 2.029e-04   2.029e-04
	Mg                1.603e-02   1.603e-02
	Mn                1.360e-03   1.360e-03
	Na                9.538e-03   9.538e-03
	S(6)              1.020e-01   1.020e-01  Charge balance
	Zn                3.348e-04   3.348e-04

----------------------------Description of solution----------------------------

                                       pH  =   3.300    
                                       pe  =   4.000    
       Specific Conductance (uS/cm, 25 oC) = 9114
                          Density (g/cm3)  =   1.01159
                        Activity of water  =   0.997
                           Ionic strength  =   2.110e-01
                       Mass of water (kg)  =   1.000e+00
                 Total alkalinity (eq/kg)  =  -1.677e-03
                       Total CO2 (mol/kg)  =   1.028e-05
                      Temperature (deg C)  =  25.00
                  Electrical balance (eq)  =   2.902e-16
 Percent error, 100*(Cat-|An|)/(Cat+|An|)  =   0.00
                               Iterations  =  10
                                  Total H  = 1.110141e+02
                                  Total O  = 5.591407e+01

----------------------------Distribution of species----------------------------

                                               Log       Log       Log    mole V
   Species          Molality    Activity  Molality  Activity     Gamma   cm3/mol

   H+              6.300e-04   5.012e-04    -3.201    -3.300    -0.099      0.00
   OH-             2.838e-11   1.994e-11   -10.547   -10.700    -0.153     -3.34
   H2O             5.551e+01   9.972e-01     1.744    -0.001     0.000     18.07
Al            1.065e-02
   AlSO4+          6.752e-03   5.026e-03    -2.171    -2.299    -0.128     (0)  
   Al(SO4)2-       3.010e-03   2.241e-03    -2.521    -2.650    -0.128     (0)  
   Al+3            8.835e-04   1.127e-04    -3.054    -3.948    -0.894    -40.73
   AlOH+2          7.259e-06   2.228e-06    -5.139    -5.652    -0.513    -26.11
   AlHSO4+2        7.277e-07   2.233e-07    -6.138    -6.651    -0.513     (0)  
   Al(OH)2+        4.668e-08   3.474e-08    -7.331    -7.459    -0.128     (0)  
   Al(OH)3         9.702e-12   1.019e-11   -11.013   -10.992     0.021     (0)  
   Al(OH)4-        5.132e-14   3.819e-14   -13.290   -13.418    -0.128     (0)  
C(4)          1.028e-05
   CO2             1.026e-05   1.077e-05    -4.989    -4.968     0.021     24.74
   HCO3-           1.282e-08   9.527e-09    -7.892    -8.021    -0.129     25.45
   FeHCO3+         1.234e-08   9.185e-09    -7.909    -8.037    -0.128     (0)  
   MgHCO3+         3.937e-10   2.930e-10    -9.405    -9.533    -0.128      5.87
   CaHCO3+         3.466e-10   2.575e-10    -9.460    -9.589    -0.129     10.07
   MnHCO3+         2.806e-10   2.088e-10    -9.552    -9.680    -0.128     (0)  
   ZnHCO3+         6.894e-11   5.131e-11   -10.162   -10.290    -0.128     (0)  
   NaHCO3          5.992e-11   6.290e-11   -10.222   -10.201     0.021     29.13
   FeCO3           1.964e-13   2.062e-13   -12.707   -12.686     0.021     (0)  
   MnCO3           1.659e-14   1.742e-14   -13.780   -13.759     0.021     (0)  
   ZnCO3           7.249e-15   7.609e-15   -14.140   -14.119     0.021     (0)  
   CaCO3           3.022e-15   3.172e-15   -14.520   -14.499     0.021    -14.60
   CO3-2           2.927e-15   8.915e-16   -14.534   -15.050    -0.516     -2.31
   MgCO3           2.130e-15   2.236e-15   -14.672   -14.650     0.021    -17.09
   NaCO3-          1.472e-16   1.096e-16   -15.832   -15.960    -0.128     -1.40
   Zn(CO3)2-2      4.726e-25   1.450e-25   -24.326   -24.839    -0.513     (0)  
Ca            1.177e-02
   Ca+2            6.688e-03   2.118e-03    -2.175    -2.674    -0.499    -17.33
   CaSO4           5.059e-03   5.311e-03    -2.296    -2.275     0.021      7.50
   CaHSO4+         2.351e-05   1.750e-05    -4.629    -4.757    -0.128     (0)  
   CaHCO3+         3.466e-10   2.575e-10    -9.460    -9.589    -0.129     10.07
   CaOH+           9.398e-13   6.995e-13   -12.027   -12.155    -0.128     (0)  
   CaCO3           3.022e-15   3.172e-15   -14.520   -14.499     0.021    -14.60
Cl            9.640e-03
   Cl-             9.509e-03   6.730e-03    -2.022    -2.172    -0.150     18.45
   FeCl+           1.203e-04   8.956e-05    -3.920    -4.048    -0.128     (0)  
   MnCl+           9.059e-06   6.743e-06    -5.043    -5.171    -0.128      6.66
   ZnCl+           1.041e-06   7.749e-07    -5.983    -6.111    -0.128     -1.41
   MnCl2           1.887e-08   1.981e-08    -7.724    -7.703     0.021     (0)  
   ZnCl2           5.202e-09   5.461e-09    -8.284    -8.263     0.021     24.06
   ZnCl3-          5.540e-11   4.123e-11   -10.257   -10.385    -0.128     54.10
   MnCl3-          4.933e-11   3.672e-11   -10.307   -10.435    -0.128     (0)  
   FeCl+2          6.097e-12   1.871e-12   -11.215   -11.728    -0.513     (0)  
   ZnCl4-2         4.531e-13   1.391e-13   -12.344   -12.857    -0.513     89.23
   FeCl2+          7.557e-14   5.625e-14   -13.122   -13.250    -0.128     (0)  
   FeCl3           3.606e-17   3.786e-17   -16.443   -16.422     0.021     (0)  
Cu(1)         3.192e-05
   Cu+             3.192e-05   2.158e-05    -4.496    -4.666    -0.170     (0)  
Cu(2)         2.403e-03
   Cu+2            1.276e-03   4.112e-04    -2.894    -3.386    -0.492    -22.98
   CuSO4           1.127e-03   1.184e-03    -2.948    -2.927     0.021     (0)  
   CuOH+           1.145e-08   8.181e-09    -7.941    -8.087    -0.146     (0)  
   Cu(OH)2         3.239e-11   3.401e-11   -10.490   -10.468     0.021     (0)  
   Cu(OH)3-        5.478e-21   4.077e-21   -20.261   -20.390    -0.128     (0)  
   Cu(OH)4-2       5.274e-30   1.618e-30   -29.278   -29.791    -0.513     (0)  
Fe(2)         5.317e-02
   Fe+2            2.992e-02   9.641e-03    -1.524    -2.016    -0.492    -20.58
   FeSO4           2.302e-02   2.417e-02    -1.638    -1.617     0.021     (0)  
   FeCl+           1.203e-04   8.956e-05    -3.920    -4.048    -0.128     (0)  
   FeHSO4+         1.070e-04   7.963e-05    -3.971    -4.099    -0.128     (0)  
   FeHCO3+         1.234e-08   9.185e-09    -7.909    -8.037    -0.128     (0)  
   FeOH+           8.150e-09   6.066e-09    -8.089    -8.217    -0.128     (0)  
   FeCO3           1.964e-13   2.062e-13   -12.707   -12.686     0.021     (0)  
Fe(3)         3.077e-09
   FeSO4+          1.912e-09   1.423e-09    -8.718    -8.847    -0.128     (0)  
   Fe(SO4)2-       5.898e-10   4.390e-10    -9.229    -9.358    -0.128     (0)  
   FeOH+2          3.854e-10   1.183e-10    -9.414    -9.927    -0.513     (0)  
   Fe(OH)2+        1.047e-10   7.792e-11    -9.980   -10.108    -0.128     (0)  
   Fe+3            7.216e-11   9.207e-12   -10.142   -11.036    -0.894     (0)  
   FeHSO4+2        6.224e-12   1.910e-12   -11.206   -11.719    -0.513     (0)  
   FeCl+2          6.097e-12   1.871e-12   -11.215   -11.728    -0.513     (0)  
   FeCl2+          7.557e-14   5.625e-14   -13.122   -13.250    -0.128     (0)  
   Fe(OH)3         1.903e-14   1.997e-14   -13.721   -13.700     0.021     (0)  
   Fe2(OH)2+4      4.244e-17   3.765e-19   -16.372   -18.424    -2.052     (0)  
   FeCl3           3.606e-17   3.786e-17   -16.443   -16.422     0.021     (0)  
   Fe(OH)4-        4.869e-20   3.624e-20   -19.313   -19.441    -0.128     (0)  
   Fe3(OH)4+5      9.855e-24   6.130e-27   -23.006   -26.213    -3.206     (0)  
H(0)          3.388e-18
   H2              1.694e-18   1.778e-18   -17.771   -17.750     0.021     28.61
K             2.029e-04
   K+              1.855e-04   1.313e-04    -3.732    -3.882    -0.150      9.35
   KSO4-           1.747e-05   1.300e-05    -4.758    -4.886    -0.128     (0)  
   KOH             8.626e-16   9.055e-16   -15.064   -15.043     0.021     (0)  
Mg            1.603e-02
   MgSO4           8.276e-03   8.688e-03    -2.082    -2.061     0.021      5.84
   Mg+2            7.756e-03   2.629e-03    -2.110    -2.580    -0.470    -20.38
   MgHCO3+         3.937e-10   2.930e-10    -9.405    -9.533    -0.128      5.87
   MgOH+           2.551e-11   1.899e-11   -10.593   -10.721    -0.128     (0)  
   MgCO3           2.130e-15   2.236e-15   -14.672   -14.650     0.021    -17.09
Mn(2)         1.360e-03
   Mn+2            7.632e-04   2.460e-04    -3.117    -3.609    -0.492    -15.47
   MnSO4           5.874e-04   6.166e-04    -3.231    -3.210     0.021      4.99
   MnCl+           9.059e-06   6.743e-06    -5.043    -5.171    -0.128      6.66
   MnCl2           1.887e-08   1.981e-08    -7.724    -7.703     0.021     (0)  
   MnHCO3+         2.806e-10   2.088e-10    -9.552    -9.680    -0.128     (0)  
   MnCl3-          4.933e-11   3.672e-11   -10.307   -10.435    -0.128     (0)  
   MnOH+           1.690e-11   1.258e-11   -10.772   -10.900    -0.128     (0)  
   MnCO3           1.659e-14   1.742e-14   -13.780   -13.759     0.021     (0)  
Mn(3)         1.084e-24
   Mn+3            1.084e-24   7.601e-26   -23.965   -25.119    -1.154     (0)  
Na            9.538e-03
   Na+             8.911e-03   6.602e-03    -2.050    -2.180    -0.130     -0.87
   NaSO4-          6.267e-04   4.665e-04    -3.203    -3.331    -0.128     17.82
   NaHCO3          5.992e-11   6.290e-11   -10.222   -10.201     0.021     29.13
   NaCO3-          1.472e-16   1.096e-16   -15.832   -15.960    -0.128     -1.40
   NaOH            1.254e-23   1.316e-23   -22.902   -22.881     0.021     (0)  
O(0)          0.000e+00
   O2              0.000e+00   0.000e+00   -56.904   -56.882     0.021     30.40
S(6)          1.020e-01
   SO4-2           4.917e-02   1.410e-02    -1.308    -1.851    -0.543     16.58
   FeSO4           2.302e-02   2.417e-02    -1.638    -1.617     0.021     (0)  
   MgSO4           8.276e-03   8.688e-03    -2.082    -2.061     0.021      5.84
   AlSO4+          6.752e-03   5.026e-03    -2.171    -2.299    -0.128     (0)  
   CaSO4           5.059e-03   5.311e-03    -2.296    -2.275     0.021      7.50
   Al(SO4)2-       3.010e-03   2.241e-03    -2.521    -2.650    -0.128     (0)  
   CuSO4           1.127e-03   1.184e-03    -2.948    -2.927     0.021     (0)  
   HSO4-           9.230e-04   6.870e-04    -3.035    -3.163    -0.128     35.56
   NaSO4-          6.267e-04   4.665e-04    -3.203    -3.331    -0.128     17.82
   MnSO4           5.874e-04   6.166e-04    -3.231    -3.210     0.021      4.99
   ZnSO4           1.347e-04   1.414e-04    -3.871    -3.850     0.021     (0)  
   FeHSO4+         1.070e-04   7.963e-05    -3.971    -4.099    -0.128     (0)  
   Zn(SO4)2-2      5.279e-05   1.620e-05    -4.277    -4.790    -0.513     (0)  
   CaHSO4+         2.351e-05   1.750e-05    -4.629    -4.757    -0.128     (0)  
   KSO4-           1.747e-05   1.300e-05    -4.758    -4.886    -0.128     (0)  
   AlHSO4+2        7.277e-07   2.233e-07    -6.138    -6.651    -0.513     (0)  
   FeSO4+          1.912e-09   1.423e-09    -8.718    -8.847    -0.128     (0)  
   Fe(SO4)2-       5.898e-10   4.390e-10    -9.229    -9.358    -0.128     (0)  
   FeHSO4+2        6.224e-12   1.910e-12   -11.206   -11.719    -0.513     (0)  
Zn            3.348e-04
   Zn+2            1.463e-04   4.278e-05    -3.835    -4.369    -0.534    -22.68
   ZnSO4           1.347e-04   1.414e-04    -3.871    -3.850     0.021     (0)  
   Zn(SO4)2-2      5.279e-05   1.620e-05    -4.277    -4.790    -0.513     (0)  
   ZnCl+           1.041e-06   7.749e-07    -5.983    -6.111    -0.128     -1.41
   ZnCl2           5.202e-09   5.461e-09    -8.284    -8.263     0.021     24.06
   ZnOH+           1.254e-10   9.333e-11    -9.902   -10.030    -0.128     (0)  
   ZnHCO3+         6.894e-11   5.131e-11   -10.162   -10.290    -0.128     (0)  
   ZnCl3-          5.540e-11   4.123e-11   -10.257   -10.385    -0.128     54.10
   ZnCl4-2         4.531e-13   1.391e-13   -12.344   -12.857    -0.513     89.23
   ZnCO3           7.249e-15   7.609e-15   -14.140   -14.119     0.021     (0)  
   Zn(OH)2         2.031e-15   2.132e-15   -14.692   -14.671     0.021     (0)  
   Zn(OH)3-        1.802e-23   1.341e-23   -22.744   -22.872    -0.128     (0)  
   Zn(CO3)2-2      4.726e-25   1.450e-25   -24.326   -24.839    -0.513     (0)  
   Zn(OH)4-2       1.378e-32   4.230e-33   -31.861   -32.374    -0.513     (0)  

------------------------------Saturation indices-------------------------------

	Phase               SI   log IAP   log K(298 K,   1 atm)

	Al(OH)3(a)       -4.85      5.95   10.80  Al(OH)3
	AlOHSO4          -0.30     -2.50   -2.20  AlOHSO4
	Alunite           1.77      0.37   -1.40  KAl3(SO4)2(OH)6
	Anhydrite        -0.30     -4.52   -4.22  CaSO4
	Aragonite        -9.39    -17.72   -8.34  CaCO3
	Calcite          -9.24    -17.72   -8.48  CaCO3
	CO2(g)           -3.50     -4.97   -1.47  CO2	 Pressure   0.0 atm, phi 1.000.
	Dolomite        -18.26    -35.35  -17.09  CaMg(CO3)2
	Fe(OH)3          -6.03     -1.14    4.89  Fe(OH)3
	Fe(OH)3(a)       -6.03     -1.14    4.89  Fe(OH)3
	Gibbsite         -2.16      5.95    8.11  Al(OH)3
	Goethite         -0.14     -1.14   -1.00  FeOOH
	Gypsum            0.05     -4.53   -4.58  CaSO4:2H2O
	H2(g)           -14.65    -17.75   -3.10  H2
	H2O(g)           -1.50     -0.00    1.50  H2O
	Halite           -5.93     -4.35    1.58  NaCl
	Hausmannite     -37.46     23.57   61.03  Mn3O4
	Hematite          1.73     -2.28   -4.01  Fe2O3
	Jarosite-K      -11.69    -20.90   -9.21  KFe3(SO4)2(OH)6
	Manganite       -15.05     10.29   25.34  MnOOH
	Melanterite      -1.67     -3.88   -2.21  FeSO4:7H2O
	MnO2            -23.79     17.59   41.38  MnO2
	O2(g)           -53.99    -56.88   -2.89  O2
	Pyrochroite     -12.21      2.99   15.20  Mn(OH)2
	Pyrolusite      -23.79     17.59   41.38  MnO2:H2O
	Rhodochrosite    -7.53    -18.66  -11.13  MnCO3
	Siderite         -6.18    -17.07  -10.89  FeCO3
	Smithsonite      -9.42    -19.42  -10.00  ZnCO3
	Zn(OH)2(e)       -9.27      2.23   11.50  Zn(OH)2


Initial solution 1.	

-----------------------------Solution composition------------------------------

	Elements           Molality       Moles

	Al                1.801e-06   1.801e-06
	Alkalinity        2.301e-03   2.301e-03
	Ca                1.222e-03   1.222e-03  Charge balance
	Cl                4.801e-04   4.801e-04
	Cu                1.500e-07   1.500e-07
	Fe                3.501e-07   3.501e-07
	K                 3.001e-05   3.001e-05
	Mg                3.701e-04   3.701e-04
	Mn                1.000e-07   1.000e-07
	Na                9.603e-04   9.603e-04
	O(0)              2.201e-04   2.201e-04
	S(6)              7.002e-04   7.002e-04
	Zn                2.501e-07   2.501e-07

----------------------------Description of solution----------------------------

                                       pH  =   7.190    
                                       pe  =   4.000    
       Specific Conductance (uS/cm, 25 oC) = 413
                          Density (g/cm3)  =   0.99731
                        Activity of water  =   1.000
                           Ionic strength  =   6.038e-03
                       Mass of water (kg)  =   1.000e+00
                    Total carbon (mol/kg)  =   2.590e-03
                       Total CO2 (mol/kg)  =   2.590e-03
                      Temperature (deg C)  =  25.00
                  Electrical balance (eq)  =   1.864e-11
 Percent error, 100*(Cat-|An|)/(Cat+|An|)  =   0.00
                               Iterations  =   9
                                  Total H  = 1.110147e+02
                                  Total O  = 5.551671e+01

---------------------------------Redox couples---------------------------------

	Redox couple             pe  Eh (volts)

	O(-2)/O(0)          13.3406      0.7892

----------------------------Distribution of species----------------------------

                                               Log       Log       Log    mole V
   Species          Molality    Activity  Molality  Activity     Gamma   cm3/mol

   OH-             1.688e-07   1.552e-07    -6.773    -6.809    -0.036     -4.03
   H+              6.954e-08   6.457e-08    -7.158    -7.190    -0.032      0.00
   H2O             5.551e+01   9.999e-01     1.744    -0.000     0.000     18.07
Al            1.801e-06
   Al(OH)4-        1.720e-06   1.584e-06    -5.764    -5.800    -0.036     (0)  
   Al(OH)3         5.419e-08   5.427e-08    -7.266    -7.265     0.001     (0)  
   Al(OH)2+        2.583e-08   2.378e-08    -7.588    -7.624    -0.036     (0)  
   AlOH+2          2.726e-10   1.959e-10    -9.564    -9.708    -0.143    -27.52
   Al+3            2.484e-12   1.274e-12   -11.605   -11.895    -0.290    -43.91
   AlSO4+          1.925e-12   1.772e-12   -11.716   -11.752    -0.036     (0)  
   Al(SO4)2-       2.678e-14   2.466e-14   -13.572   -13.608    -0.036     (0)  
   AlHSO4+2        1.411e-20   1.015e-20   -19.850   -19.994    -0.143     (0)  
C(4)          2.590e-03
   HCO3-           2.252e-03   2.078e-03    -2.647    -2.682    -0.035     24.64
   CO2             3.013e-04   3.017e-04    -3.521    -3.520     0.001     24.74
   CaHCO3+         2.359e-05   2.177e-05    -4.627    -4.662    -0.035      9.72
   MgHCO3+         6.498e-06   5.983e-06    -5.187    -5.223    -0.036      5.52
   CO3-2           2.081e-06   1.510e-06    -5.682    -5.821    -0.139     -3.81
   CaCO3           2.079e-06   2.082e-06    -5.682    -5.682     0.001    -14.60
   NaHCO3          1.829e-06   1.832e-06    -5.738    -5.737     0.001     29.13
   MgCO3           3.539e-07   3.544e-07    -6.451    -6.450     0.001    -17.09
   ZnCO3           3.570e-08   3.575e-08    -7.447    -7.447     0.001     (0)  
   ZnHCO3+         3.373e-08   3.105e-08    -7.472    -7.508    -0.036     (0)  
   NaCO3-          2.690e-08   2.477e-08    -7.570    -7.606    -0.036     -2.80
   FeHCO3+         2.438e-08   2.245e-08    -7.613    -7.649    -0.036     (0)  
   MnHCO3+         1.134e-08   1.045e-08    -7.945    -7.981    -0.036     (0)  
   MnCO3           6.753e-09   6.762e-09    -8.171    -8.170     0.001     (0)  
   FeCO3           3.907e-09   3.912e-09    -8.408    -8.408     0.001     (0)  
   Zn(CO3)2-2      1.605e-09   1.154e-09    -8.794    -8.938    -0.143     (0)  
Ca            1.222e-03
   Ca+2            1.132e-03   8.209e-04    -2.946    -3.086    -0.140    -18.07
   CaSO4           6.414e-05   6.423e-05    -4.193    -4.192     0.001      7.50
   CaHCO3+         2.359e-05   2.177e-05    -4.627    -4.662    -0.035      9.72
   CaCO3           2.079e-06   2.082e-06    -5.682    -5.682     0.001    -14.60
   CaOH+           2.291e-09   2.110e-09    -8.640    -8.676    -0.036     (0)  
   CaHSO4+         2.960e-11   2.726e-11   -10.529   -10.565    -0.036     (0)  
Cl            4.801e-04
   Cl-             4.801e-04   4.416e-04    -3.319    -3.355    -0.036     18.11
   ZnCl+           1.532e-10   1.411e-10    -9.815    -9.851    -0.036     -1.76
   MnCl+           1.102e-10   1.015e-10    -9.958    -9.994    -0.036      6.30
   FeCl+           7.152e-11   6.586e-11   -10.146   -10.181    -0.036     (0)  
   ZnCl2           6.515e-14   6.524e-14   -13.186   -13.185     0.001     24.06
   MnCl2           1.953e-14   1.956e-14   -13.709   -13.709     0.001     (0)  
   ZnCl3-          3.511e-17   3.233e-17   -16.455   -16.490    -0.036     53.75
   MnCl3-          2.584e-18   2.379e-18   -17.588   -17.624    -0.036     (0)  
   FeCl+2          1.914e-18   1.376e-18   -17.718   -17.861    -0.143     (0)  
   ZnCl4-2         9.956e-21   7.156e-21   -20.002   -20.145    -0.143     87.82
   FeCl2+          2.948e-21   2.714e-21   -20.530   -20.566    -0.036     (0)  
   FeCl3           1.197e-25   1.199e-25   -24.922   -24.921     0.001     (0)  
Cu(1)         1.282e-09
   Cu+             1.282e-09   1.177e-09    -8.892    -8.929    -0.037     (0)  
Cu(2)         1.488e-07
   Cu(OH)2         1.122e-07   1.124e-07    -6.950    -6.949     0.001     (0)  
   Cu+2            3.077e-08   2.242e-08    -7.512    -7.649    -0.137    -24.39
   CuOH+           3.772e-09   3.473e-09    -8.423    -8.459    -0.036     (0)  
   CuSO4           2.012e-09   2.014e-09    -8.696    -8.696     0.001     (0)  
   Cu(OH)3-        1.139e-13   1.048e-13   -12.944   -12.979    -0.036     (0)  
   Cu(OH)4-2       4.507e-19   3.240e-19   -18.346   -18.489    -0.143     (0)  
Fe(2)         1.856e-07
   Fe+2            1.483e-07   1.080e-07    -6.829    -6.966    -0.137    -21.99
   FeHCO3+         2.438e-08   2.245e-08    -7.613    -7.649    -0.036     (0)  
   FeSO4           8.440e-09   8.452e-09    -8.074    -8.073     0.001     (0)  
   FeCO3           3.907e-09   3.912e-09    -8.408    -8.408     0.001     (0)  
   FeOH+           5.746e-10   5.290e-10    -9.241    -9.277    -0.036     (0)  
   FeCl+           7.152e-11   6.586e-11   -10.146   -10.181    -0.036     (0)  
   FeHSO4+         3.896e-15   3.587e-15   -14.409   -14.445    -0.036     (0)  
Fe(3)         1.645e-07
   Fe(OH)3         1.054e-07   1.055e-07    -6.977    -6.977     0.001     (0)  
   Fe(OH)2+        5.745e-08   5.290e-08    -7.241    -7.277    -0.036     (0)  
   Fe(OH)4-        1.619e-09   1.491e-09    -8.791    -8.827    -0.036     (0)  
   FeOH+2          1.435e-11   1.032e-11   -10.843   -10.987    -0.143     (0)  
   FeSO4+          5.405e-16   4.977e-16   -15.267   -15.303    -0.036     (0)  
   Fe+3            2.012e-16   1.032e-16   -15.696   -15.986    -0.290     (0)  
   Fe(SO4)2-       5.203e-18   4.790e-18   -17.284   -17.320    -0.036     (0)  
   FeCl+2          1.914e-18   1.376e-18   -17.718   -17.861    -0.143     (0)  
   Fe2(OH)2+4      1.073e-20   2.864e-21   -19.969   -20.543    -0.574     (0)  
   FeCl2+          2.948e-21   2.714e-21   -20.530   -20.566    -0.036     (0)  
   FeHSO4+2        1.197e-22   8.605e-23   -21.922   -22.065    -0.143     (0)  
   Fe3(OH)4+5      2.493e-25   3.165e-26   -24.603   -25.500    -0.896     (0)  
   FeCl3           1.197e-25   1.199e-25   -24.922   -24.921     0.001     (0)  
H(0)          5.894e-26
   H2              2.947e-26   2.951e-26   -25.531   -25.530     0.001     28.61
K             3.001e-05
   K+              2.992e-05   2.752e-05    -4.524    -4.560    -0.036      8.97
   KSO4-           9.239e-08   8.507e-08    -7.034    -7.070    -0.036     (0)  
   KOH             1.476e-12   1.478e-12   -11.831   -11.830     0.001     (0)  
Mg            3.701e-04
   Mg+2            3.379e-04   2.460e-04    -3.471    -3.609    -0.138    -21.16
   MgSO4           2.534e-05   2.537e-05    -4.596    -4.596     0.001      5.84
   MgHCO3+         6.498e-06   5.983e-06    -5.187    -5.223    -0.036      5.52
   MgCO3           3.539e-07   3.544e-07    -6.451    -6.450     0.001    -17.09
   MgOH+           1.502e-08   1.383e-08    -7.823    -7.859    -0.036     (0)  
Mn(2)         1.000e-07
   Mn+2            7.739e-08   5.639e-08    -7.111    -7.249    -0.137    -16.89
   MnHCO3+         1.134e-08   1.045e-08    -7.945    -7.981    -0.036     (0)  
   MnCO3           6.753e-09   6.762e-09    -8.171    -8.170     0.001     (0)  
   MnSO4           4.406e-09   4.412e-09    -8.356    -8.355     0.001      4.99
   MnCl+           1.102e-10   1.015e-10    -9.958    -9.994    -0.036      6.30
   MnOH+           2.438e-11   2.245e-11   -10.613   -10.649    -0.036     (0)  
   MnCl2           1.953e-14   1.956e-14   -13.709   -13.709     0.001     (0)  
   MnCl3-          2.584e-18   2.379e-18   -17.588   -17.624    -0.036     (0)  
Mn(3)         3.663e-29
   Mn+3            3.663e-29   1.743e-29   -28.436   -28.759    -0.323     (0)  
Na            9.603e-04
   Na+             9.563e-04   8.812e-04    -3.019    -3.055    -0.036     -1.16
   NaSO4-          2.110e-06   1.943e-06    -5.676    -5.711    -0.036     16.73
   NaHCO3          1.829e-06   1.832e-06    -5.738    -5.737     0.001     29.13
   NaCO3-          2.690e-08   2.477e-08    -7.570    -7.606    -0.036     -2.80
   NaOH            1.366e-20   1.368e-20   -19.865   -19.864     0.001     (0)  
O(0)          2.201e-04
   O2              1.100e-04   1.102e-04    -3.958    -3.958     0.001     30.40
S(6)          7.002e-04
   SO4-2           6.085e-04   4.400e-04    -3.216    -3.357    -0.141     15.06
   CaSO4           6.414e-05   6.423e-05    -4.193    -4.192     0.001      7.50
   MgSO4           2.534e-05   2.537e-05    -4.596    -4.596     0.001      5.84
   NaSO4-          2.110e-06   1.943e-06    -5.676    -5.711    -0.036     16.73
   KSO4-           9.239e-08   8.507e-08    -7.034    -7.070    -0.036     (0)  
   ZnSO4           1.222e-08   1.224e-08    -7.913    -7.912     0.001     (0)  
   FeSO4           8.440e-09   8.452e-09    -8.074    -8.073     0.001     (0)  
   MnSO4           4.406e-09   4.412e-09    -8.356    -8.355     0.001      4.99
   HSO4-           3.000e-09   2.762e-09    -8.523    -8.559    -0.036     35.21
   CuSO4           2.012e-09   2.014e-09    -8.696    -8.696     0.001     (0)  
   Zn(SO4)2-2      6.090e-11   4.378e-11   -10.215   -10.359    -0.143     (0)  
   CaHSO4+         2.960e-11   2.726e-11   -10.529   -10.565    -0.036     (0)  
   AlSO4+          1.925e-12   1.772e-12   -11.716   -11.752    -0.036     (0)  
   Al(SO4)2-       2.678e-14   2.466e-14   -13.572   -13.608    -0.036     (0)  
   FeHSO4+         3.896e-15   3.587e-15   -14.409   -14.445    -0.036     (0)  
   FeSO4+          5.405e-16   4.977e-16   -15.267   -15.303    -0.036     (0)  
   Fe(SO4)2-       5.203e-18   4.790e-18   -17.284   -17.320    -0.036     (0)  
   AlHSO4+2        1.411e-20   1.015e-20   -19.850   -19.994    -0.143     (0)  
   FeHSO4+2        1.197e-22   8.605e-23   -21.922   -22.065    -0.143     (0)  
Zn            2.501e-07
   Zn+2            1.641e-07   1.187e-07    -6.785    -6.926    -0.141    -24.09
   ZnCO3           3.570e-08   3.575e-08    -7.447    -7.447     0.001     (0)  
   ZnHCO3+         3.373e-08   3.105e-08    -7.472    -7.508    -0.036     (0)  
   ZnSO4           1.222e-08   1.224e-08    -7.913    -7.912     0.001     (0)  
   ZnOH+           2.189e-09   2.015e-09    -8.660    -8.696    -0.036     (0)  
   Zn(CO3)2-2      1.605e-09   1.154e-09    -8.794    -8.938    -0.143     (0)  
   Zn(OH)2         3.579e-10   3.583e-10    -9.446    -9.446     0.001     (0)  
   ZnCl+           1.532e-10   1.411e-10    -9.815    -9.851    -0.036     -1.76
   Zn(SO4)2-2      6.090e-11   4.378e-11   -10.215   -10.359    -0.143     (0)  
   ZnCl2           6.515e-14   6.524e-14   -13.186   -13.185     0.001     24.06
   Zn(OH)3-        1.906e-14   1.755e-14   -13.720   -13.756    -0.036     (0)  
   ZnCl3-          3.511e-17   3.233e-17   -16.455   -16.490    -0.036     53.75
   Zn(OH)4-2       5.993e-20   4.307e-20   -19.222   -19.366    -0.143     (0)  
   ZnCl4-2         9.956e-21   7.156e-21   -20.002   -20.145    -0.143     87.82

------------------------------Saturation indices-------------------------------

	Phase               SI   log IAP   log K(298 K,   1 atm)

	Al(OH)3(a)       -1.13      9.67   10.80  Al(OH)3
	AlOHSO4          -5.86     -8.06   -2.20  AlOHSO4
	Alunite          -2.42     -3.82   -1.40  KAl3(SO4)2(OH)6
	Anhydrite        -2.22     -6.44   -4.22  CaSO4
	Aragonite        -0.57     -8.91   -8.34  CaCO3
	Calcite          -0.43     -8.91   -8.48  CaCO3
	CO2(g)           -2.05     -3.52   -1.47  CO2	 Pressure   0.0 atm, phi 1.000.
	Dolomite         -1.25    -18.34  -17.09  CaMg(CO3)2
	Fe(OH)3           0.69      5.58    4.89  Fe(OH)3
	Fe(OH)3(a)        0.69      5.58    4.89  Fe(OH)3
	Gibbsite          1.56      9.67    8.11  Al(OH)3
	Goethite          6.58      5.58   -1.00  FeOOH
	Gypsum           -1.86     -6.44   -4.58  CaSO4:2H2O
	H2(g)           -22.43    -25.53   -3.10  H2
	H2O(g)           -1.50     -0.00    1.50  H2O
	Halite           -7.99     -6.41    1.58  NaCl
	Hausmannite     -17.26     43.77   61.03  Mn3O4
	Hematite         15.17     11.17   -4.01  Fe2O3
	Jarosite-K       -6.88    -16.09   -9.21  KFe3(SO4)2(OH)6
	Manganite        -7.02     18.32   25.34  MnOOH
	Melanterite      -8.11    -10.32   -2.21  FeSO4:7H2O
	MnO2            -11.87     29.51   41.38  MnO2
	O2(g)            -1.07     -3.96   -2.89  O2
	Pyrochroite      -8.07      7.13   15.20  Mn(OH)2
	Pyrolusite      -11.87     29.51   41.38  MnO2:H2O
	Rhodochrosite    -1.94    -13.07  -11.13  MnCO3
	Siderite         -1.90    -12.79  -10.89  FeCO3
	Smithsonite      -2.75    -12.75  -10.00  ZnCO3
	Zn(OH)2(e)       -4.05      7.45   11.50  Zn(OH)2


------------------------------------
Beginning of advection calculations.
------------------------------------

Beginning of advection time step 1, cumulative pore volumes 0.200000.
Beginning of advection time step 2, cumulative pore volumes 0.400000.
Beginning of advection time step 3, cumulative pore volumes 0.600000.
Beginning of advection time step 4, cumulative pore volumes 0.800000.
Beginning of advection time step 5, cumulative pore volumes 1.000000.

Cell 1.

Using solution 1.	
Using pure phase assemblage 1.	Pure-phase assemblage after simulation 1.

-------------------------------Phase assemblage--------------------------------

                                                      Moles in assemblage
Phase               SI  log IAP  log K(T, P)   Initial       Final       Delta

Al(OH)3(a)       -0.00    10.80     10.80    2.558e-02   1.923e-02  -6.348e-03
AlOHSO4          -0.00    -2.20     -2.20    1.686e-02   3.371e-02   1.686e-02
Calcite          -4.92   -13.40     -8.48    0.000e+00           0   0.000e+00
Fe(OH)3          -0.00     4.89      4.89    8.230e-01   8.231e-01   1.519e-04
Gypsum           -0.00    -4.58     -4.58    1.381e-01   1.394e-01   1.268e-03
MnO2            -16.28    25.10     41.38    0.000e+00           0   0.000e+00

-----------------------------Solution composition------------------------------

	Elements           Molality       Moles

	Al                1.472e-04   1.472e-04
	C                 1.028e-05   1.028e-05
	Ca                1.050e-02   1.050e-02
	Cl                9.640e-03   9.640e-03
	Cu                2.435e-03   2.435e-03
	Fe                5.302e-02   5.302e-02
	K                 2.029e-04   2.029e-04
	Mg                1.603e-02   1.603e-02
	Mn                1.360e-03   1.360e-03
	Na                9.538e-03   9.538e-03
	S                 8.383e-02   8.383e-02
	Zn                3.349e-04   3.348e-04

----------------------------Description of solution----------------------------

                                       pH  =   5.567      Charge balance
                                       pe  =   3.217      Adjusted to redox equilibrium
       Specific Conductance (uS/cm, 25 oC) = 8528
                          Density (g/cm3)  =   1.00957
                        Activity of water  =   0.997
                           Ionic strength  =   1.934e-01
                       Mass of water (kg)  =   1.000e+00
                 Total alkalinity (eq/kg)  =   5.554e-05
                       Total CO2 (mol/kg)  =   1.028e-05
                      Temperature (deg C)  =  25.00
                  Electrical balance (eq)  =   1.744e-15
 Percent error, 100*(Cat-|An|)/(Cat+|An|)  =   0.00
                               Iterations  =  11
                                  Total H  = 1.110108e+02
                                  Total O  = 5.584078e+01

----------------------------Distribution of species----------------------------

                                               Log       Log       Log    mole V
   Species          Molality    Activity  Molality  Activity     Gamma   cm3/mol

   H+              3.396e-06   2.713e-06    -5.469    -5.567    -0.098      0.00
   OH-             5.193e-09   3.685e-09    -8.285    -8.434    -0.149     -3.39
   H2O             5.551e+01   9.975e-01     1.744    -0.001     0.000     18.07
Al            1.472e-04
   AlSO4+          7.256e-05   5.426e-05    -4.139    -4.266    -0.126     (0)  
   Al(SO4)2-       3.102e-05   2.320e-05    -4.508    -4.634    -0.126     (0)  
   Al(OH)2+        1.786e-05   1.336e-05    -4.748    -4.874    -0.126     (0)  
   AlOH+2          1.482e-05   4.635e-06    -4.829    -5.334    -0.505    -26.18
   Al+3            9.574e-06   1.269e-06    -5.019    -5.897    -0.878    -40.89
   Al(OH)3         6.923e-07   7.238e-07    -6.160    -6.140     0.019     (0)  
   Al(OH)4-        6.707e-07   5.016e-07    -6.173    -6.300    -0.126     (0)  
   AlHSO4+2        4.173e-11   1.305e-11   -10.380   -10.884    -0.505     (0)  
C(-4)         0.000e+00
   CH4             0.000e+00   0.000e+00   -51.036   -51.017     0.019     32.22
C(4)          1.028e-05
   CO2             6.962e-06   7.279e-06    -5.157    -5.138     0.019     24.74
   HCO3-           1.591e-06   1.190e-06    -5.798    -5.924    -0.126     25.39
   FeHCO3+         1.581e-06   1.183e-06    -5.801    -5.927    -0.126     (0)  
   MgHCO3+         5.041e-08   3.770e-08    -7.298    -7.424    -0.126      5.85
   CaHCO3+         3.961e-08   2.963e-08    -7.402    -7.528    -0.126     10.05
   MnHCO3+         3.598e-08   2.691e-08    -7.444    -7.570    -0.126     (0)  
   ZnHCO3+         8.960e-09   6.701e-09    -8.048    -8.174    -0.126     (0)  
   NaHCO3          7.582e-09   7.927e-09    -8.120    -8.101     0.019     29.13
   FeCO3           4.691e-09   4.905e-09    -8.329    -8.309     0.019     (0)  
   MnCO3           3.966e-10   4.146e-10    -9.402    -9.382     0.019     (0)  
   ZnCO3           1.756e-10   1.836e-10    -9.755    -9.736     0.019     (0)  
   CO3-2           6.568e-11   2.058e-11   -10.183   -10.687    -0.504     -2.39
   CaCO3           6.452e-11   6.745e-11   -10.190   -10.171     0.019    -14.60
   MgCO3           5.083e-11   5.315e-11   -10.294   -10.275     0.019    -17.09
   NaCO3-          3.412e-12   2.552e-12   -11.467   -11.593    -0.126     -1.51
   Zn(CO3)2-2      2.583e-16   8.078e-17   -15.588   -16.093    -0.505     (0)  
Ca            1.050e-02
   Ca+2            6.015e-03   1.951e-03    -2.221    -2.710    -0.489    -17.36
   CaSO4           4.487e-03   4.691e-03    -2.348    -2.329     0.019      7.50
   CaHSO4+         1.119e-07   8.365e-08    -6.951    -7.078    -0.126     (0)  
   CaHCO3+         3.961e-08   2.963e-08    -7.402    -7.528    -0.126     10.05
   CaOH+           1.592e-10   1.191e-10    -9.798    -9.924    -0.126     (0)  
   CaCO3           6.452e-11   6.745e-11   -10.190   -10.171     0.019    -14.60
Cl            9.640e-03
   Cl-             9.505e-03   6.790e-03    -2.022    -2.168    -0.146     18.43
   FeCl+           1.245e-04   9.312e-05    -3.905    -4.031    -0.126     (0)  
   MnCl+           9.381e-06   7.016e-06    -5.028    -5.154    -0.126      6.64
   ZnCl+           1.093e-06   8.172e-07    -5.961    -6.088    -0.126     -1.42
   MnCl2           1.989e-08   2.079e-08    -7.701    -7.682     0.019     (0)  
   ZnCl2           5.557e-09   5.810e-09    -8.255    -8.236     0.019     24.06
   ZnCl3-          5.919e-11   4.427e-11   -10.228   -10.354    -0.126     54.08
   MnCl3-          5.200e-11   3.889e-11   -10.284   -10.410    -0.126     (0)  
   FeCl+2          1.026e-12   3.209e-13   -11.989   -12.494    -0.505     (0)  
   ZnCl4-2         4.816e-13   1.506e-13   -12.317   -12.822    -0.505     89.16
   FeCl2+          1.301e-14   9.733e-15   -13.886   -14.012    -0.126     (0)  
   FeCl3           6.321e-18   6.609e-18   -17.199   -17.180     0.019     (0)  
Cu(1)         1.845e-04
   Cu+             1.845e-04   1.263e-04    -3.734    -3.899    -0.165     (0)  
Cu(2)         2.251e-03
   Cu+2            1.200e-03   3.968e-04    -2.921    -3.401    -0.481    -23.05
   CuSO4           1.048e-03   1.095e-03    -2.980    -2.960     0.019     (0)  
   CuOH+           2.024e-06   1.459e-06    -5.694    -5.836    -0.142     (0)  
   Cu(OH)2         1.072e-06   1.121e-06    -5.970    -5.950     0.019     (0)  
   Cu(OH)3-        3.321e-14   2.484e-14   -13.479   -13.605    -0.126     (0)  
   Cu(OH)4-2       5.826e-21   1.822e-21   -20.235   -20.739    -0.505     (0)  
Fe(2)         5.302e-02
   Fe+2            3.004e-02   9.935e-03    -1.522    -2.003    -0.481    -20.65
   FeSO4           2.285e-02   2.389e-02    -1.641    -1.622     0.019     (0)  
   FeCl+           1.245e-04   9.312e-05    -3.905    -4.031    -0.126     (0)  
   FeHCO3+         1.581e-06   1.183e-06    -5.801    -5.927    -0.126     (0)  
   FeOH+           1.545e-06   1.155e-06    -5.811    -5.937    -0.126     (0)  
   FeHSO4+         5.695e-07   4.259e-07    -6.244    -6.371    -0.126     (0)  
   FeCO3           4.691e-09   4.905e-09    -8.329    -8.309     0.019     (0)  
   Fe(HS)2         0.000e+00   0.000e+00   -81.178   -81.158     0.019     (0)  
   Fe(HS)3-        0.000e+00   0.000e+00  -123.048  -123.174    -0.126     (0)  
Fe(3)         6.377e-07
   Fe(OH)2+        6.049e-07   4.524e-07    -6.218    -6.345    -0.126     (0)  
   Fe(OH)3         2.050e-08   2.143e-08    -7.688    -7.669     0.019     (0)  
   FeOH+2          1.188e-08   3.715e-09    -7.925    -8.430    -0.505     (0)  
   FeSO4+          3.102e-10   2.320e-10    -9.508    -9.635    -0.126     (0)  
   Fe(SO4)2-       9.177e-11   6.863e-11   -10.037   -10.163    -0.126     (0)  
   Fe+3            1.181e-11   1.565e-12   -10.928   -11.806    -0.878     (0)  
   Fe(OH)4-        9.609e-12   7.186e-12   -11.017   -11.143    -0.126     (0)  
   FeCl+2          1.026e-12   3.209e-13   -11.989   -12.494    -0.505     (0)  
   Fe2(OH)2+4      3.882e-14   3.715e-16   -13.411   -15.430    -2.019     (0)  
   FeCl2+          1.301e-14   9.733e-15   -13.886   -14.012    -0.126     (0)  
   FeHSO4+2        5.388e-15   1.685e-15   -14.269   -14.773    -0.505     (0)  
   Fe3(OH)4+5      5.014e-17   3.511e-20   -16.300   -19.455    -3.155     (0)  
   FeCl3           6.321e-18   6.609e-18   -17.199   -17.180     0.019     (0)  
H(0)          3.663e-21
   H2              1.831e-21   1.915e-21   -20.737   -20.718     0.019     28.61
K             2.029e-04
   K+              1.861e-04   1.329e-04    -3.730    -3.876    -0.146      9.33
   KSO4-           1.689e-05   1.263e-05    -4.772    -4.899    -0.126     (0)  
   KOH             1.621e-13   1.695e-13   -12.790   -12.771     0.019     (0)  
Mg            1.603e-02
   MgSO4           8.205e-03   8.578e-03    -2.086    -2.067     0.019      5.84
   Mg+2            7.828e-03   2.706e-03    -2.106    -2.568    -0.461    -20.42
   MgHCO3+         5.041e-08   3.770e-08    -7.298    -7.424    -0.126      5.85
   MgOH+           4.831e-09   3.613e-09    -8.316    -8.442    -0.126     (0)  
   MgCO3           5.083e-11   5.315e-11   -10.294   -10.275     0.019    -17.09
Mn(2)         1.360e-03
   Mn+2            7.670e-04   2.536e-04    -3.115    -3.596    -0.481    -15.55
   MnSO4           5.833e-04   6.098e-04    -3.234    -3.215     0.019      4.99
   MnCl+           9.381e-06   7.016e-06    -5.028    -5.154    -0.126      6.64
   MnHCO3+         3.598e-08   2.691e-08    -7.444    -7.570    -0.126     (0)  
   MnCl2           1.989e-08   2.079e-08    -7.701    -7.682     0.019     (0)  
   MnOH+           3.206e-09   2.397e-09    -8.494    -8.620    -0.126     (0)  
   MnCO3           3.966e-10   4.146e-10    -9.402    -9.382     0.019     (0)  
   MnCl3-          5.200e-11   3.889e-11   -10.284   -10.410    -0.126     (0)  
Mn(3)         1.767e-25
   Mn+3            1.767e-25   1.293e-26   -24.753   -25.888    -1.136     (0)  
Na            9.538e-03
   Na+             8.935e-03   6.660e-03    -2.049    -2.177    -0.128     -0.89
   NaSO4-          6.034e-04   4.513e-04    -3.219    -3.346    -0.126     17.73
   NaHCO3          7.582e-09   7.927e-09    -8.120    -8.101     0.019     29.13
   NaCO3-          3.412e-12   2.552e-12   -11.467   -11.593    -0.126     -1.51
   NaOH            2.347e-21   2.454e-21   -20.629   -20.610     0.019     (0)  
O(0)          0.000e+00
   O2              0.000e+00   0.000e+00   -50.966   -50.946     0.019     30.40
S(-2)         0.000e+00
   H2S             0.000e+00   0.000e+00   -42.697   -42.678     0.019     37.16
   HS-             0.000e+00   0.000e+00   -43.904   -44.053    -0.149     20.98
   S-2             0.000e+00   0.000e+00   -50.883   -51.404    -0.521     (0)  
   Fe(HS)2         0.000e+00   0.000e+00   -81.178   -81.158     0.019     (0)  
   Fe(HS)3-        0.000e+00   0.000e+00  -123.048  -123.174    -0.126     (0)  
S(6)          8.383e-02
   SO4-2           4.567e-02   1.352e-02    -1.340    -1.869    -0.529     16.50
   FeSO4           2.285e-02   2.389e-02    -1.641    -1.622     0.019     (0)  
   MgSO4           8.205e-03   8.578e-03    -2.086    -2.067     0.019      5.84
   CaSO4           4.487e-03   4.691e-03    -2.348    -2.329     0.019      7.50
   CuSO4           1.048e-03   1.095e-03    -2.980    -2.960     0.019     (0)  
   NaSO4-          6.034e-04   4.513e-04    -3.219    -3.346    -0.126     17.73
   MnSO4           5.833e-04   6.098e-04    -3.234    -3.215     0.019      4.99
   ZnSO4           1.356e-04   1.417e-04    -3.868    -3.849     0.019     (0)  
   AlSO4+          7.256e-05   5.426e-05    -4.139    -4.266    -0.126     (0)  
   Zn(SO4)2-2      4.980e-05   1.558e-05    -4.303    -4.808    -0.505     (0)  
   Al(SO4)2-       3.102e-05   2.320e-05    -4.508    -4.634    -0.126     (0)  
   KSO4-           1.689e-05   1.263e-05    -4.772    -4.899    -0.126     (0)  
   HSO4-           4.768e-06   3.566e-06    -5.322    -5.448    -0.126     35.54
   FeHSO4+         5.695e-07   4.259e-07    -6.244    -6.371    -0.126     (0)  
   CaHSO4+         1.119e-07   8.365e-08    -6.951    -7.078    -0.126     (0)  
   FeSO4+          3.102e-10   2.320e-10    -9.508    -9.635    -0.126     (0)  
   Fe(SO4)2-       9.177e-11   6.863e-11   -10.037   -10.163    -0.126     (0)  
   AlHSO4+2        4.173e-11   1.305e-11   -10.380   -10.884    -0.505     (0)  
   FeHSO4+2        5.388e-15   1.685e-15   -14.269   -14.773    -0.505     (0)  
Zn            3.349e-04
   Zn+2            1.484e-04   4.471e-05    -3.829    -4.350    -0.521    -22.75
   ZnSO4           1.356e-04   1.417e-04    -3.868    -3.849     0.019     (0)  
   Zn(SO4)2-2      4.980e-05   1.558e-05    -4.303    -4.808    -0.505     (0)  
   ZnCl+           1.093e-06   8.172e-07    -5.961    -6.088    -0.126     -1.42
   ZnOH+           2.411e-08   1.803e-08    -7.618    -7.744    -0.126     (0)  
   ZnHCO3+         8.960e-09   6.701e-09    -8.048    -8.174    -0.126     (0)  
   ZnCl2           5.557e-09   5.810e-09    -8.255    -8.236     0.019     24.06
   ZnCO3           1.756e-10   1.836e-10    -9.755    -9.736     0.019     (0)  
   Zn(OH)2         7.280e-11   7.611e-11   -10.138   -10.119     0.019     (0)  
   ZnCl3-          5.919e-11   4.427e-11   -10.228   -10.354    -0.126     54.08
   ZnCl4-2         4.816e-13   1.506e-13   -12.317   -12.822    -0.505     89.16
   Zn(CO3)2-2      2.583e-16   8.078e-17   -15.588   -16.093    -0.505     (0)  
   Zn(OH)3-        1.183e-16   8.850e-17   -15.927   -16.053    -0.126     (0)  
   Zn(OH)4-2       1.649e-23   5.158e-24   -22.783   -23.288    -0.505     (0)  

------------------------------Saturation indices-------------------------------

	Phase               SI   log IAP   log K(298 K,   1 atm)

	Al(OH)3(a)       -0.00     10.80   10.80  Al(OH)3
	AlOHSO4          -0.00     -2.20   -2.20  AlOHSO4
	Alunite           9.49      8.09   -1.40  KAl3(SO4)2(OH)6
	Anhydrite        -0.36     -4.58   -4.22  CaSO4
	Aragonite        -5.06    -13.40   -8.34  CaCO3
	Calcite          -4.92    -13.40   -8.48  CaCO3
	CH4(g)          -48.17    -51.02   -2.84  CH4
	CO2(g)           -3.67     -5.14   -1.47  CO2	 Pressure   0.0 atm, phi 1.000.
	Dolomite         -9.56    -26.65  -17.09  CaMg(CO3)2
	Fe(OH)3          -0.00      4.89    4.89  Fe(OH)3
	Fe(OH)3(a)       -0.00      4.89    4.89  Fe(OH)3
	FeS(ppt)        -36.57    -40.49   -3.92  FeS
	Gibbsite          2.69     10.80    8.11  Al(OH)3
	Goethite          5.89      4.89   -1.00  FeOOH
	Gypsum           -0.00     -4.58   -4.58  CaSO4:2H2O
	H2(g)           -17.62    -20.72   -3.10  H2
	H2O(g)           -1.50     -0.00    1.50  H2O
	H2S(g)          -41.63    -49.62   -7.99  H2S
	Halite           -5.93     -4.34    1.58  NaCl
	Hausmannite     -20.85     40.18   61.03  Mn3O4
	Hematite         13.79      9.79   -4.01  Fe2O3
	Jarosite-K       -0.43     -9.64   -9.21  KFe3(SO4)2(OH)6
	Mackinawite     -35.84    -40.49   -4.65  FeS
	Manganite        -9.02     16.32   25.34  MnOOH
	Melanterite      -1.67     -3.88   -2.21  FeSO4:7H2O
	MnO2            -16.28     25.10   41.38  MnO2
	O2(g)           -48.05    -50.95   -2.89  O2
	Pyrite          -54.06    -72.54  -18.48  FeS2
	Pyrochroite      -7.66      7.54   15.20  Mn(OH)2
	Pyrolusite      -16.28     25.10   41.38  MnO2:H2O
	Rhodochrosite    -3.15    -14.28  -11.13  MnCO3
	Siderite         -1.80    -12.69  -10.89  FeCO3
	Smithsonite      -5.04    -15.04  -10.00  ZnCO3
	Sphalerite      -31.22    -42.84  -11.62  ZnS
	Sulfur          -29.99    -25.11    4.88  S
	Zn(OH)2(e)       -4.72      6.78   11.50  Zn(OH)2



Cell 2.

Using solution 2.	Solution after simulation 1.
Using pure phase assemblage 2.	Pure-phase assemblage after simulation 1.

-------------------------------Phase assemblage--------------------------------

                                                      Moles in assemblage
Phase               SI  log IAP  log K(T, P)   Initial       Final       Delta

Al(OH)3(a)        0.00    10.80     10.80    7.283e-06   1.450e-04   1.378e-04
AlOHSO4          -2.11    -4.31     -2.20    0.000e+00           0   0.000e+00
Calcite           0.00    -8.48     -8.48    9.972e-02   7.641e-02  -2.331e-02
Fe(OH)3           0.00     4.89      4.89    7.967e-01   8.193e-01   2.260e-02
Gypsum           -0.00    -4.58     -4.58    3.626e-02   5.832e-02   2.206e-02
MnO2            -16.85    24.53     41.38    1.020e-02           0  -1.020e-02

-----------------------------Solution composition------------------------------

	Elements           Molality       Moles

	Al                9.463e-06   9.448e-06
	C                 2.336e-02   2.332e-02
	Ca                1.177e-02   1.175e-02
	Cl                9.655e-03   9.640e-03
	Cu                2.439e-03   2.435e-03
	Fe                3.047e-02   3.042e-02
	K                 2.033e-04   2.029e-04
	Mg                1.606e-02   1.603e-02
	Mn                1.158e-02   1.156e-02
	Na                9.553e-03   9.538e-03
	S                 6.187e-02   6.177e-02
	Zn                3.354e-04   3.348e-04

----------------------------Description of solution----------------------------

                                       pH  =   6.579      Charge balance
                                       pe  =   0.463      Adjusted to redox equilibrium
       Specific Conductance (uS/cm, 25 oC) = 7417
                          Density (g/cm3)  =   1.00770
                        Activity of water  =   0.998
                           Ionic strength  =   1.629e-01
                       Mass of water (kg)  =   9.984e-01
                 Total alkalinity (eq/kg)  =   1.929e-02
                       Total CO2 (mol/kg)  =   2.336e-02
                      Temperature (deg C)  =  25.00
                  Electrical balance (eq)  =   2.648e-12
 Percent error, 100*(Cat-|An|)/(Cat+|An|)  =   0.00
                               Iterations  =  13
                                  Total H  = 1.108544e+02
                                  Total O  = 5.573055e+01

----------------------------Distribution of species----------------------------

                                               Log       Log       Log    mole V
   Species          Molality    Activity  Molality  Activity     Gamma   cm3/mol

   H+              3.272e-07   2.636e-07    -6.485    -6.579    -0.094      0.00
   OH-             5.242e-08   3.792e-08    -7.280    -7.421    -0.141     -3.47
   H2O             5.551e+01   9.976e-01     1.744    -0.001     0.000     18.07
Al            9.463e-06
   Al(OH)4-        6.832e-06   5.162e-06    -5.165    -5.287    -0.122     (0)  
   Al(OH)2+        1.718e-06   1.298e-06    -5.765    -5.887    -0.122     (0)  
   Al(OH)3         6.971e-07   7.238e-07    -6.157    -6.140     0.016     (0)  
   AlOH+2          1.343e-07   4.377e-08    -6.872    -7.359    -0.487    -26.32
   AlSO4+          5.448e-08   4.116e-08    -7.264    -7.386    -0.122     (0)  
   Al(SO4)2-       1.926e-08   1.455e-08    -7.715    -7.837    -0.122     (0)  
   Al+3            8.144e-09   1.165e-09    -8.089    -8.934    -0.845    -41.19
   AlHSO4+2        2.952e-15   9.622e-16   -14.530   -15.017    -0.487     (0)  
C(-4)         5.174e-35
   CH4             5.174e-35   5.372e-35   -34.286   -34.270     0.016     32.22
C(4)          2.336e-02
   HCO3-           1.040e-02   7.892e-03    -1.983    -2.103    -0.120     25.29
   FeHCO3+         5.412e-03   4.089e-03    -2.267    -2.388    -0.122     (0)  
   CO2             4.516e-03   4.689e-03    -2.345    -2.329     0.016     24.74
   MnHCO3+         1.837e-03   1.388e-03    -2.736    -2.858    -0.122     (0)  
   MgHCO3+         3.618e-04   2.734e-04    -3.442    -3.563    -0.122      5.82
   CaHCO3+         3.132e-04   2.376e-04    -3.504    -3.624    -0.120     10.02
   MnCO3           2.120e-04   2.201e-04    -3.674    -3.657     0.016     (0)  
   FeCO3           1.681e-04   1.745e-04    -3.774    -3.758     0.016     (0)  
   ZnHCO3+         5.497e-05   4.154e-05    -4.260    -4.382    -0.122     (0)  
   NaHCO3          5.161e-05   5.358e-05    -4.287    -4.271     0.016     29.13
   ZnCO3           1.128e-05   1.171e-05    -4.948    -4.931     0.016     (0)  
   CaCO3           5.360e-06   5.565e-06    -5.271    -5.255     0.016    -14.60
   CO3-2           4.238e-06   1.404e-06    -5.373    -5.853    -0.480     -2.53
   MgCO3           3.820e-06   3.966e-06    -5.418    -5.402     0.016    -17.09
   Zn(CO3)2-2      1.078e-06   3.515e-07    -5.967    -6.454    -0.487     (0)  
   NaCO3-          2.349e-07   1.775e-07    -6.629    -6.751    -0.122     -1.70
Ca            1.177e-02
   Ca+2            6.936e-03   2.360e-03    -2.159    -2.627    -0.468    -17.41
   CaSO4           4.518e-03   4.690e-03    -2.345    -2.329     0.016      7.50
   CaHCO3+         3.132e-04   2.376e-04    -3.504    -3.624    -0.120     10.02
   CaCO3           5.360e-06   5.565e-06    -5.271    -5.255     0.016    -14.60
   CaHSO4+         1.076e-08   8.128e-09    -7.968    -8.090    -0.122     (0)  
   CaOH+           1.961e-09   1.482e-09    -8.707    -8.829    -0.122     (0)  
Cl            9.655e-03
   Cl-             9.514e-03   6.922e-03    -2.022    -2.160    -0.138     18.40
   MnCl+           7.366e-05   5.566e-05    -4.133    -4.254    -0.122      6.60
   FeCl+           6.553e-05   4.951e-05    -4.184    -4.305    -0.122     (0)  
   ZnCl+           1.031e-06   7.789e-07    -5.987    -6.109    -0.122     -1.46
   MnCl2           1.620e-07   1.682e-07    -6.791    -6.774     0.016     (0)  
   ZnCl2           5.438e-09   5.645e-09    -8.265    -8.248     0.016     24.06
   MnCl3-          4.243e-10   3.206e-10    -9.372    -9.494    -0.122     (0)  
   ZnCl3-          5.803e-11   4.385e-11   -10.236   -10.358    -0.122     54.05
   ZnCl4-2         4.667e-13   1.521e-13   -12.331   -12.818    -0.487     89.02
   FeCl+2          9.211e-16   3.002e-16   -15.036   -15.523    -0.487     (0)  
   FeCl2+          1.228e-17   9.281e-18   -16.911   -17.032    -0.122     (0)  
   FeCl3           6.188e-21   6.424e-21   -20.208   -20.192     0.016     (0)  
Cu(1)         2.389e-03
   Cu+             2.389e-03   1.674e-03    -2.622    -2.776    -0.155     (0)  
Cu(2)         5.008e-05
   Cu+2            2.660e-05   9.253e-06    -4.575    -5.034    -0.459    -23.19
   CuSO4           2.034e-05   2.112e-05    -4.692    -4.675     0.016     (0)  
   Cu(OH)2         2.666e-06   2.768e-06    -5.574    -5.558     0.016     (0)  
   CuOH+           4.773e-07   3.501e-07    -6.321    -6.456    -0.135     (0)  
   Cu(OH)3-        8.354e-13   6.312e-13   -12.078   -12.200    -0.122     (0)  
   Cu(OH)4-2       1.462e-18   4.765e-19   -17.835   -18.322    -0.487     (0)  
Fe(2)         3.047e-02
   Fe+2            1.490e-02   5.182e-03    -1.827    -2.286    -0.459    -20.78
   FeSO4           9.921e-03   1.030e-02    -2.003    -1.987     0.016     (0)  
   FeHCO3+         5.412e-03   4.089e-03    -2.267    -2.388    -0.122     (0)  
   FeCO3           1.681e-04   1.745e-04    -3.774    -3.758     0.016     (0)  
   FeCl+           6.553e-05   4.951e-05    -4.184    -4.305    -0.122     (0)  
   FeOH+           8.207e-06   6.201e-06    -5.086    -5.208    -0.122     (0)  
   FeHSO4+         2.362e-08   1.785e-08    -7.627    -7.748    -0.122     (0)  
   Fe(HS)2         0.000e+00   0.000e+00   -55.771   -55.755     0.016     (0)  
   Fe(HS)3-        0.000e+00   0.000e+00   -84.806   -84.928    -0.122     (0)  
Fe(3)         7.903e-08
   Fe(OH)2+        5.818e-08   4.396e-08    -7.235    -7.357    -0.122     (0)  
   Fe(OH)3         2.064e-08   2.143e-08    -7.685    -7.669     0.016     (0)  
   FeOH+2          1.076e-10   3.508e-11    -9.968   -10.455    -0.487     (0)  
   Fe(OH)4-        9.788e-11   7.395e-11   -10.009   -10.131    -0.122     (0)  
   FeSO4+          2.329e-13   1.760e-13   -12.633   -12.755    -0.122     (0)  
   Fe(SO4)2-       5.696e-14   4.304e-14   -13.244   -13.366    -0.122     (0)  
   Fe+3            1.004e-14   1.436e-15   -13.998   -14.843    -0.845     (0)  
   FeCl+2          9.211e-16   3.002e-16   -15.036   -15.523    -0.487     (0)  
   FeCl2+          1.228e-17   9.281e-18   -16.911   -17.032    -0.122     (0)  
   Fe2(OH)2+4      2.937e-18   3.313e-20   -17.532   -19.480    -1.948     (0)  
   FeHSO4+2        3.812e-19   1.242e-19   -18.419   -18.906    -0.487     (0)  
   FeCl3           6.188e-21   6.424e-21   -20.208   -20.192     0.016     (0)  
   Fe3(OH)4+5      3.361e-22   3.043e-25   -21.474   -24.517    -3.043     (0)  
H(0)          1.126e-17
   H2              5.628e-18   5.843e-18   -17.250   -17.233     0.016     28.61
K             2.033e-04
   K+              1.890e-04   1.375e-04    -3.724    -3.862    -0.138      9.29
   KSO4-           1.429e-05   1.080e-05    -4.845    -4.967    -0.122     (0)  
   KOH             1.737e-12   1.804e-12   -11.760   -11.744     0.016     (0)  
Mg            1.606e-02
   Mg+2            8.221e-03   2.960e-03    -2.085    -2.529    -0.444    -20.47
   MgSO4           7.471e-03   7.757e-03    -2.127    -2.110     0.016      5.84
   MgHCO3+         3.618e-04   2.734e-04    -3.442    -3.563    -0.122      5.82
   MgCO3           3.820e-06   3.966e-06    -5.418    -5.402     0.016    -17.09
   MgOH+           5.383e-08   4.067e-08    -7.269    -7.391    -0.122     (0)  
Mn(2)         1.158e-02
   Mn+2            5.674e-03   1.974e-03    -2.246    -2.705    -0.459    -15.68
   MnSO4           3.779e-03   3.923e-03    -2.423    -2.406     0.016      4.99
   MnHCO3+         1.837e-03   1.388e-03    -2.736    -2.858    -0.122     (0)  
   MnCO3           2.120e-04   2.201e-04    -3.674    -3.657     0.016     (0)  
   MnCl+           7.366e-05   5.566e-05    -4.133    -4.254    -0.122      6.60
   MnOH+           2.541e-07   1.920e-07    -6.595    -6.717    -0.122     (0)  
   MnCl2           1.620e-07   1.682e-07    -6.791    -6.774     0.016     (0)  
   MnCl3-          4.243e-10   3.206e-10    -9.372    -9.494    -0.122     (0)  
Mn(3)         2.205e-27
   Mn+3            2.205e-27   1.770e-28   -26.657   -27.752    -1.096     (0)  
Na            9.553e-03
   Na+             8.998e-03   6.790e-03    -2.046    -2.168    -0.122     -0.91
   NaSO4-          5.034e-04   3.804e-04    -3.298    -3.420    -0.122     17.59
   NaHCO3          5.161e-05   5.358e-05    -4.287    -4.271     0.016     29.13
   NaCO3-          2.349e-07   1.775e-07    -6.629    -6.751    -0.122     -1.70
   NaOH            2.480e-20   2.575e-20   -19.606   -19.589     0.016     (0)  
O(0)          0.000e+00
   O2              0.000e+00   0.000e+00   -57.932   -57.915     0.016     30.40
S(-2)         2.222e-31
   H2S             1.370e-31   1.422e-31   -30.863   -30.847     0.016     37.16
   HS-             8.527e-32   6.169e-32   -31.069   -31.210    -0.141     20.95
   S-2             8.838e-38   2.826e-38   -37.054   -37.549    -0.495     (0)  
   Fe(HS)2         0.000e+00   0.000e+00   -55.771   -55.755     0.016     (0)  
   Fe(HS)3-        0.000e+00   0.000e+00   -84.806   -84.928    -0.122     (0)  
S(6)          6.187e-02
   SO4-2           3.548e-02   1.118e-02    -1.450    -1.952    -0.502     16.35
   FeSO4           9.921e-03   1.030e-02    -2.003    -1.987     0.016     (0)  
   MgSO4           7.471e-03   7.757e-03    -2.127    -2.110     0.016      5.84
   CaSO4           4.518e-03   4.690e-03    -2.345    -2.329     0.016      7.50
   MnSO4           3.779e-03   3.923e-03    -2.423    -2.406     0.016      4.99
   NaSO4-          5.034e-04   3.804e-04    -3.298    -3.420    -0.122     17.59
   ZnSO4           1.055e-04   1.095e-04    -3.977    -3.960     0.016     (0)  
   Zn(SO4)2-2      3.054e-05   9.952e-06    -4.515    -5.002    -0.487     (0)  
   CuSO4           2.034e-05   2.112e-05    -4.692    -4.675     0.016     (0)  
   KSO4-           1.429e-05   1.080e-05    -4.845    -4.967    -0.122     (0)  
   HSO4-           3.792e-07   2.865e-07    -6.421    -6.543    -0.122     35.51
   AlSO4+          5.448e-08   4.116e-08    -7.264    -7.386    -0.122     (0)  
   FeHSO4+         2.362e-08   1.785e-08    -7.627    -7.748    -0.122     (0)  
   Al(SO4)2-       1.926e-08   1.455e-08    -7.715    -7.837    -0.122     (0)  
   CaHSO4+         1.076e-08   8.128e-09    -7.968    -8.090    -0.122     (0)  
   FeSO4+          2.329e-13   1.760e-13   -12.633   -12.755    -0.122     (0)  
   Fe(SO4)2-       5.696e-14   4.304e-14   -13.244   -13.366    -0.122     (0)  
   AlHSO4+2        2.952e-15   9.622e-16   -14.530   -15.017    -0.487     (0)  
   FeHSO4+2        3.812e-19   1.242e-19   -18.419   -18.906    -0.487     (0)  
Zn            3.354e-04
   Zn+2            1.307e-04   4.181e-05    -3.884    -4.379    -0.495    -22.88
   ZnSO4           1.055e-04   1.095e-04    -3.977    -3.960     0.016     (0)  
   ZnHCO3+         5.497e-05   4.154e-05    -4.260    -4.382    -0.122     (0)  
   Zn(SO4)2-2      3.054e-05   9.952e-06    -4.515    -5.002    -0.487     (0)  
   ZnCO3           1.128e-05   1.171e-05    -4.948    -4.931     0.016     (0)  
   Zn(CO3)2-2      1.078e-06   3.515e-07    -5.967    -6.454    -0.487     (0)  
   ZnCl+           1.031e-06   7.789e-07    -5.987    -6.109    -0.122     -1.46
   ZnOH+           2.296e-07   1.735e-07    -6.639    -6.761    -0.122     (0)  
   Zn(OH)2         7.259e-09   7.536e-09    -8.139    -8.123     0.016     (0)  
   ZnCl2           5.438e-09   5.645e-09    -8.265    -8.248     0.016     24.06
   ZnCl3-          5.803e-11   4.385e-11   -10.236   -10.358    -0.122     54.05
   ZnCl4-2         4.667e-13   1.521e-13   -12.331   -12.818    -0.487     89.02
   Zn(OH)3-        1.194e-13   9.018e-14   -12.923   -13.045    -0.122     (0)  
   Zn(OH)4-2       1.659e-19   5.408e-20   -18.780   -19.267    -0.487     (0)  

------------------------------Saturation indices-------------------------------

	Phase               SI   log IAP   log K(298 K,   1 atm)

	Al(OH)3(a)        0.00     10.80   10.80  Al(OH)3
	AlOHSO4          -2.11     -4.31   -2.20  AlOHSO4
	Alunite           6.30      4.90   -1.40  KAl3(SO4)2(OH)6
	Anhydrite        -0.36     -4.58   -4.22  CaSO4
	Aragonite        -0.14     -8.48   -8.34  CaCO3
	Calcite           0.00     -8.48   -8.48  CaCO3
	CH4(g)          -31.43    -34.27   -2.84  CH4
	CO2(g)           -0.86     -2.33   -1.47  CO2	 Pressure   0.0 atm, phi 1.000.
	Dolomite          0.23    -16.86  -17.09  CaMg(CO3)2
	Fe(OH)3           0.00      4.89    4.89  Fe(OH)3
	Fe(OH)3(a)        0.00      4.89    4.89  Fe(OH)3
	FeS(ppt)        -23.00    -26.92   -3.92  FeS
	Gibbsite          2.69     10.80    8.11  Al(OH)3
	Goethite          5.89      4.89   -1.00  FeOOH
	Gypsum           -0.00     -4.58   -4.58  CaSO4:2H2O
	H2(g)           -14.13    -17.23   -3.10  H2
	H2O(g)           -1.50     -0.00    1.50  H2O
	H2S(g)          -29.80    -37.79   -7.99  H2S
	Halite           -5.91     -4.33    1.58  NaCl
	Hausmannite     -15.59     45.44   61.03  Mn3O4
	Hematite         13.79      9.79   -4.01  Fe2O3
	Jarosite-K       -3.62    -12.83   -9.21  KFe3(SO4)2(OH)6
	Mackinawite     -22.27    -26.92   -4.65  FeS
	Manganite        -7.85     17.49   25.34  MnOOH
	Melanterite      -2.04     -4.24   -2.21  FeSO4:7H2O
	MnO2            -16.85     24.53   41.38  MnO2
	O2(g)           -55.02    -57.92   -2.89  O2
	Pyrite          -32.14    -50.62  -18.48  FeS2
	Pyrochroite      -4.75     10.45   15.20  Mn(OH)2
	Pyrolusite      -16.85     24.53   41.38  MnO2:H2O
	Rhodochrosite     2.57     -8.56  -11.13  MnCO3
	Siderite          2.75     -8.14  -10.89  FeCO3
	Smithsonite      -0.23    -10.23  -10.00  ZnCO3
	Sphalerite      -17.39    -29.01  -11.62  ZnS
	Sulfur          -21.65    -16.76    4.88  S
	Zn(OH)2(e)       -2.72      8.78   11.50  Zn(OH)2



Cell 3.

Using solution 3.	Solution after simulation 1.
Using pure phase assemblage 3.	Pure-phase assemblage after simulation 1.

-------------------------------Phase assemblage--------------------------------

                                                      Moles in assemblage
Phase               SI  log IAP  log K(T, P)   Initial       Final       Delta

Al(OH)3(a)       -0.00    10.80     10.80    0.000e+00           0   0.000e+00
AlOHSO4          -1.33    -3.53     -2.20    0.000e+00           0   0.000e+00
Calcite          -0.00    -8.48     -8.48    1.398e-01   1.398e-01  -2.645e-13
Fe(OH)3           0.00     4.89      4.89    7.300e-01   7.300e-01   0.000e+00
Gypsum           -0.00    -4.58     -4.58    4.507e-12   4.654e-12   1.467e-13
MnO2             -0.00    41.38     41.38    4.500e-02   4.500e-02  -4.212e-15

-----------------------------Solution composition------------------------------

	Elements           Molality       Moles

	Al                1.024e-05   1.019e-05
	C                 6.030e-02   6.005e-02
	Ca                1.417e-02   1.411e-02
	Cl                9.679e-03   9.640e-03
	Cu                2.445e-03   2.435e-03
	Fe                1.841e-07   1.833e-07
	K                 2.038e-04   2.029e-04
	Mg                1.610e-02   1.603e-02
	Mn                2.808e-02   2.796e-02
	Na                9.577e-03   9.538e-03
	S                 4.443e-02   4.425e-02
	Zn                3.362e-04   3.348e-04

----------------------------Description of solution----------------------------

                                       pH  =   6.130      Charge balance
                                       pe  =   9.606      Adjusted to redox equilibrium
       Specific Conductance (uS/cm, 25 oC) = 6707
                          Density (g/cm3)  =   1.00637
                        Activity of water  =   0.997
                           Ionic strength  =   1.401e-01
                       Mass of water (kg)  =   9.959e-01
                 Total alkalinity (eq/kg)  =   3.351e-02
                       Total CO2 (mol/kg)  =   6.030e-02
                      Temperature (deg C)  =  25.00
                  Electrical balance (eq)  =   1.245e-12
 Percent error, 100*(Cat-|An|)/(Cat+|An|)  =   0.00
                               Iterations  =   5
                                  Total H  = 1.105919e+02
                                  Total O  = 5.560974e+01

----------------------------Distribution of species----------------------------

                                               Log       Log       Log    mole V
   Species          Molality    Activity  Molality  Activity     Gamma   cm3/mol

   H+              9.128e-07   7.409e-07    -6.040    -6.130    -0.091      0.00
   OH-             1.834e-08   1.349e-08    -7.736    -7.870    -0.133     -3.54
   H2O             5.551e+01   9.974e-01     1.744    -0.001     0.000     18.07
Al            1.024e-05
   Al(OH)2+        4.783e-06   3.649e-06    -5.320    -5.438    -0.117     (0)  
   Al(OH)4-        2.407e-06   1.836e-06    -5.619    -5.736    -0.117     (0)  
   AlOH+2          1.020e-06   3.459e-07    -5.991    -6.461    -0.470    -26.42
   AlSO4+          9.107e-07   6.949e-07    -6.041    -6.158    -0.117     (0)  
   Al(OH)3         7.008e-07   7.238e-07    -6.154    -6.140     0.014     (0)  
   Al(SO4)2-       2.447e-07   1.867e-07    -6.611    -6.729    -0.117     (0)  
   Al+3            1.692e-07   2.587e-08    -6.772    -7.587    -0.816    -41.44
   AlHSO4+2        1.347e-13   4.565e-14   -12.871   -13.341    -0.470     (0)  
C(-4)         0.000e+00
   CH4             0.000e+00   0.000e+00  -103.064  -103.050     0.014     32.22
C(4)          6.030e-02
   CO2             2.725e-02   2.814e-02    -1.565    -1.551     0.014     24.74
   HCO3-           2.194e-02   1.685e-02    -1.659    -1.773    -0.115     25.21
   MnHCO3+         8.769e-03   6.691e-03    -2.057    -2.175    -0.117     (0)  
   CaHCO3+         8.696e-04   6.677e-04    -3.061    -3.175    -0.115      9.99
   MgHCO3+         8.552e-04   6.525e-04    -3.068    -3.185    -0.117      5.79
   MnCO3           3.655e-04   3.775e-04    -3.437    -3.423     0.014     (0)  
   NaHCO3          1.130e-04   1.167e-04    -3.947    -3.933     0.014     29.13
   ZnHCO3+         1.122e-04   8.560e-05    -3.950    -4.068    -0.117     (0)  
   ZnCO3           8.314e-06   8.587e-06    -5.080    -5.066     0.014     (0)  
   CaCO3           5.388e-06   5.565e-06    -5.269    -5.255     0.014    -14.60
   MgCO3           3.261e-06   3.368e-06    -5.487    -5.473     0.014    -17.09
   CO3-2           3.068e-06   1.067e-06    -5.513    -5.972    -0.459     -2.65
   Zn(CO3)2-2      5.777e-07   1.958e-07    -6.238    -6.708    -0.470     (0)  
   NaCO3-          1.803e-07   1.376e-07    -6.744    -6.862    -0.117     -1.84
   FeHCO3+         1.826e-10   1.393e-10    -9.738    -9.856    -0.117     (0)  
   FeCO3           2.049e-12   2.116e-12   -11.689   -11.675     0.014     (0)  
Ca            1.417e-02
   Ca+2            8.749e-03   3.106e-03    -2.058    -2.508    -0.450    -17.46
   CaSO4           4.543e-03   4.692e-03    -2.343    -2.329     0.014      7.50
   CaHCO3+         8.696e-04   6.677e-04    -3.061    -3.175    -0.115      9.99
   CaCO3           5.388e-06   5.565e-06    -5.269    -5.255     0.014    -14.60
   CaHSO4+         2.995e-08   2.285e-08    -7.524    -7.641    -0.117     (0)  
   CaOH+           9.094e-10   6.939e-10    -9.041    -9.159    -0.117     (0)  
Cl            9.679e-03
   Cl-             9.510e-03   7.028e-03    -2.022    -2.153    -0.131     18.37
   MnCl+           1.672e-04   1.276e-04    -3.777    -3.894    -0.117      6.58
   ZnCl+           1.000e-06   7.633e-07    -6.000    -6.117    -0.117     -1.48
   MnCl2           3.789e-07   3.913e-07    -6.421    -6.407     0.014     (0)  
   ZnCl2           5.439e-09   5.617e-09    -8.264    -8.250     0.014     24.06
   MnCl3-          9.928e-10   7.575e-10    -9.003    -9.121    -0.117     (0)  
   ZnCl3-          5.805e-11   4.429e-11   -10.236   -10.354    -0.117     54.02
   FeCl+           1.051e-12   8.023e-13   -11.978   -12.096    -0.117     (0)  
   ZnCl4-2         4.603e-13   1.560e-13   -12.337   -12.807    -0.470     88.91
   FeCl+2          1.997e-14   6.770e-15   -13.700   -14.169    -0.470     (0)  
   FeCl2+          2.785e-16   2.125e-16   -15.555   -15.673    -0.117     (0)  
   FeCl3           1.446e-19   1.494e-19   -18.840   -18.826     0.014     (0)  
Cu(1)         9.917e-11
   Cu+             9.917e-11   7.085e-11   -10.004   -10.150    -0.146     (0)  
Cu(2)         2.445e-03
   Cu+2            1.500e-03   5.452e-04    -2.824    -3.263    -0.439    -23.29
   CuSO4           9.157e-04   9.457e-04    -3.038    -3.024     0.014     (0)  
   Cu(OH)2         1.999e-05   2.064e-05    -4.699    -4.685     0.014     (0)  
   CuOH+           9.854e-06   7.340e-06    -5.006    -5.134    -0.128     (0)  
   Cu(OH)3-        2.194e-12   1.674e-12   -11.659   -11.776    -0.117     (0)  
   Cu(OH)4-2       1.327e-18   4.497e-19   -17.877   -18.347    -0.470     (0)  
Fe(2)         5.342e-10
   Fe+2            2.275e-10   8.270e-11    -9.643   -10.082    -0.439    -20.89
   FeHCO3+         1.826e-10   1.393e-10    -9.738    -9.856    -0.117     (0)  
   FeSO4           1.210e-10   1.249e-10    -9.917    -9.903     0.014     (0)  
   FeCO3           2.049e-12   2.116e-12   -11.689   -11.675     0.014     (0)  
   FeCl+           1.051e-12   8.023e-13   -11.978   -12.096    -0.117     (0)  
   FeOH+           4.614e-14   3.520e-14   -13.336   -13.453    -0.117     (0)  
   FeHSO4+         7.974e-16   6.085e-16   -15.098   -15.216    -0.117     (0)  
   Fe(HS)2         0.000e+00   0.000e+00  -202.023  -202.009     0.014     (0)  
   Fe(HS)3-        0.000e+00   0.000e+00  -300.293  -300.410    -0.117     (0)  
Fe(3)         1.836e-07
   Fe(OH)2+        1.620e-07   1.236e-07    -6.791    -6.908    -0.117     (0)  
   Fe(OH)3         2.075e-08   2.143e-08    -7.683    -7.669     0.014     (0)  
   FeOH+2          8.179e-10   2.772e-10    -9.087    -9.557    -0.470     (0)  
   Fe(OH)4-        3.448e-11   2.631e-11   -10.462   -10.580    -0.117     (0)  
   FeSO4+          3.894e-12   2.971e-12   -11.410   -11.527    -0.117     (0)  
   Fe(SO4)2-       7.237e-13   5.522e-13   -12.140   -12.258    -0.117     (0)  
   Fe+3            2.086e-13   3.190e-14   -12.681   -13.496    -0.816     (0)  
   FeCl+2          1.997e-14   6.770e-15   -13.700   -14.169    -0.470     (0)  
   FeCl2+          2.785e-16   2.125e-16   -15.555   -15.673    -0.117     (0)  
   Fe2(OH)2+4      1.567e-16   2.069e-18   -15.805   -17.684    -1.880     (0)  
   FeHSO4+2        1.739e-17   5.895e-18   -16.760   -17.230    -0.470     (0)  
   FeCl3           1.446e-19   1.494e-19   -18.840   -18.826     0.014     (0)  
   Fe3(OH)4+5      4.617e-20   5.340e-23   -19.336   -22.272    -2.937     (0)  
H(0)          4.614e-35
   H2              2.307e-35   2.383e-35   -34.637   -34.623     0.014     28.61
K             2.038e-04
   K+              1.926e-04   1.424e-04    -3.715    -3.847    -0.131      9.26
   KSO4-           1.114e-05   8.497e-06    -4.953    -5.071    -0.117     (0)  
   KOH             6.433e-13   6.644e-13   -12.192   -12.178     0.014     (0)  
Mg            1.610e-02
   Mg+2            8.857e-03   3.310e-03    -2.053    -2.480    -0.428    -20.52
   MgSO4           6.382e-03   6.591e-03    -2.195    -2.181     0.014      5.84
   MgHCO3+         8.552e-04   6.525e-04    -3.068    -3.185    -0.117      5.79
   MgCO3           3.261e-06   3.368e-06    -5.487    -5.473     0.014    -17.09
   MgOH+           2.120e-08   1.618e-08    -7.674    -7.791    -0.117     (0)  
Mn(2)         2.808e-02
   Mn+2            1.226e-02   4.456e-03    -1.912    -2.351    -0.439    -15.79
   MnHCO3+         8.769e-03   6.691e-03    -2.057    -2.175    -0.117     (0)  
   MnSO4           6.517e-03   6.731e-03    -2.186    -2.172     0.014      4.99
   MnCO3           3.655e-04   3.775e-04    -3.437    -3.423     0.014     (0)  
   MnCl+           1.672e-04   1.276e-04    -3.777    -3.894    -0.117      6.58
   MnCl2           3.789e-07   3.913e-07    -6.421    -6.407     0.014     (0)  
   MnOH+           2.021e-07   1.542e-07    -6.695    -6.812    -0.117     (0)  
   MnCl3-          9.928e-10   7.575e-10    -9.003    -9.121    -0.117     (0)  
Mn(3)         6.344e-18
   Mn+3            6.344e-18   5.561e-19   -17.198   -18.255    -1.057     (0)  
Na            9.577e-03
   Na+             9.078e-03   6.926e-03    -2.042    -2.159    -0.117     -0.94
   NaSO4-          3.865e-04   2.949e-04    -3.413    -3.530    -0.117     17.48
   NaHCO3          1.130e-04   1.167e-04    -3.947    -3.933     0.014     29.13
   NaCO3-          1.803e-07   1.376e-07    -6.744    -6.862    -0.117     -1.84
   NaOH            9.048e-21   9.344e-21   -20.043   -20.029     0.014     (0)  
O(0)          1.414e-23
   O2              7.072e-24   7.304e-24   -23.150   -23.136     0.014     30.40
S(-2)         0.000e+00
   H2S             0.000e+00   0.000e+00   -99.641   -99.627     0.014     37.16
   HS-             0.000e+00   0.000e+00  -100.305  -100.438    -0.133     20.92
   S-2             0.000e+00   0.000e+00  -106.753  -107.226    -0.473     (0)  
   Fe(HS)2         0.000e+00   0.000e+00  -202.023  -202.009     0.014     (0)  
   Fe(HS)3-        0.000e+00   0.000e+00  -300.293  -300.410    -0.117     (0)  
S(6)          4.443e-02
   SO4-2           2.557e-02   8.495e-03    -1.592    -2.071    -0.478     16.23
   MnSO4           6.517e-03   6.731e-03    -2.186    -2.172     0.014      4.99
   MgSO4           6.382e-03   6.591e-03    -2.195    -2.181     0.014      5.84
   CaSO4           4.543e-03   4.692e-03    -2.343    -2.329     0.014      7.50
   CuSO4           9.157e-04   9.457e-04    -3.038    -3.024     0.014     (0)  
   NaSO4-          3.865e-04   2.949e-04    -3.413    -3.530    -0.117     17.48
   ZnSO4           7.781e-05   8.036e-05    -4.109    -4.095     0.014     (0)  
   Zn(SO4)2-2      1.637e-05   5.549e-06    -4.786    -5.256    -0.470     (0)  
   KSO4-           1.114e-05   8.497e-06    -4.953    -5.071    -0.117     (0)  
   AlSO4+          9.107e-07   6.949e-07    -6.041    -6.158    -0.117     (0)  
   HSO4-           8.020e-07   6.120e-07    -6.096    -6.213    -0.117     35.48
   Al(SO4)2-       2.447e-07   1.867e-07    -6.611    -6.729    -0.117     (0)  
   CaHSO4+         2.995e-08   2.285e-08    -7.524    -7.641    -0.117     (0)  
   FeSO4           1.210e-10   1.249e-10    -9.917    -9.903     0.014     (0)  
   FeSO4+          3.894e-12   2.971e-12   -11.410   -11.527    -0.117     (0)  
   Fe(SO4)2-       7.237e-13   5.522e-13   -12.140   -12.258    -0.117     (0)  
   AlHSO4+2        1.347e-13   4.565e-14   -12.871   -13.341    -0.470     (0)  
   FeHSO4+         7.974e-16   6.085e-16   -15.098   -15.216    -0.117     (0)  
   FeHSO4+2        1.739e-17   5.895e-18   -16.760   -17.230    -0.470     (0)  
Zn            3.362e-04
   Zn+2            1.199e-04   4.035e-05    -3.921    -4.394    -0.473    -22.99
   ZnHCO3+         1.122e-04   8.560e-05    -3.950    -4.068    -0.117     (0)  
   ZnSO4           7.781e-05   8.036e-05    -4.109    -4.095     0.014     (0)  
   Zn(SO4)2-2      1.637e-05   5.549e-06    -4.786    -5.256    -0.470     (0)  
   ZnCO3           8.314e-06   8.587e-06    -5.080    -5.066     0.014     (0)  
   ZnCl+           1.000e-06   7.633e-07    -6.000    -6.117    -0.117     -1.48
   Zn(CO3)2-2      5.777e-07   1.958e-07    -6.238    -6.708    -0.470     (0)  
   ZnOH+           7.806e-08   5.956e-08    -7.108    -7.225    -0.117     (0)  
   ZnCl2           5.439e-09   5.617e-09    -8.264    -8.250     0.014     24.06
   Zn(OH)2         8.913e-10   9.205e-10    -9.050    -9.036     0.014     (0)  
   ZnCl3-          5.805e-11   4.429e-11   -10.236   -10.354    -0.117     54.02
   ZnCl4-2         4.603e-13   1.560e-13   -12.337   -12.807    -0.470     88.91
   Zn(OH)3-        5.136e-15   3.919e-15   -14.289   -14.407    -0.117     (0)  
   Zn(OH)4-2       2.467e-21   8.360e-22   -20.608   -21.078    -0.470     (0)  

------------------------------Saturation indices-------------------------------

	Phase               SI   log IAP   log K(298 K,   1 atm)

	Al(OH)3(a)       -0.00     10.80   10.80  Al(OH)3
	AlOHSO4          -1.33     -3.53   -2.20  AlOHSO4
	Alunite           7.42      6.02   -1.40  KAl3(SO4)2(OH)6
	Anhydrite        -0.36     -4.58   -4.22  CaSO4
	Aragonite        -0.14     -8.48   -8.34  CaCO3
	Calcite          -0.00     -8.48   -8.48  CaCO3
	CH4(g)         -100.21   -103.05   -2.84  CH4
	CO2(g)           -0.08     -1.55   -1.47  CO2	 Pressure   0.0 atm, phi 1.000.
	Dolomite          0.16    -16.93  -17.09  CaMg(CO3)2
	Fe(OH)3           0.00      4.89    4.89  Fe(OH)3
	Fe(OH)3(a)        0.00      4.89    4.89  Fe(OH)3
	FeS(ppt)       -100.48   -104.39   -3.92  FeS
	Gibbsite          2.69     10.80    8.11  Al(OH)3
	Goethite          5.89      4.89   -1.00  FeOOH
	Gypsum           -0.00     -4.58   -4.58  CaSO4:2H2O
	H2(g)           -31.52    -34.62   -3.10  H2
	H2O(g)           -1.50     -0.00    1.50  H2O
	H2S(g)          -98.58   -106.57   -7.99  H2S
	Halite           -5.89     -4.31    1.58  NaCl
	Hausmannite       0.17     61.20   61.03  Mn3O4
	Hematite         13.79      9.79   -4.01  Fe2O3
	Jarosite-K       -2.49    -11.70   -9.21  KFe3(SO4)2(OH)6
	Mackinawite     -99.74   -104.39   -4.65  FeS
	Manganite         0.30     25.64   25.34  MnOOH
	Melanterite      -9.95    -12.16   -2.21  FeSO4:7H2O
	MnO2             -0.00     41.38   41.38  MnO2
	O2(g)           -20.24    -23.14   -2.89  O2
	Pyrite         -161.01   -179.49  -18.48  FeS2
	Pyrochroite      -5.29      9.91   15.20  Mn(OH)2
	Pyrolusite       -0.00     41.38   41.38  MnO2:H2O
	Rhodochrosite     2.81     -8.32  -11.13  MnCO3
	Siderite         -5.16    -16.05  -10.89  FeCO3
	Smithsonite      -0.37    -10.37  -10.00  ZnCO3
	Sphalerite      -87.08    -98.70  -11.62  ZnS
	Sulfur          -73.04    -68.15    4.88  S
	Zn(OH)2(e)       -3.64      7.86   11.50  Zn(OH)2



Cell 4.

Using solution 4.	Solution after simulation 1.
Using pure phase assemblage 4.	Pure-phase assemblage after simulation 1.

-------------------------------Phase assemblage--------------------------------

                                                      Moles in assemblage
Phase               SI  log IAP  log K(T, P)   Initial       Final       Delta

Al(OH)3(a)       -0.04    10.76     10.80    0.000e+00           0   0.000e+00
AlOHSO4          -1.37    -3.57     -2.20    0.000e+00           0   0.000e+00
[...]
   FeHSO4+         5.695e-07   4.259e-07    -6.244    -6.371    -0.126     (0)  
   CaHSO4+         1.119e-07   8.365e-08    -6.951    -7.078    -0.126     (0)  
   FeSO4+          3.102e-10   2.320e-10    -9.508    -9.635    -0.126     (0)  
   Fe(SO4)2-       9.177e-11   6.863e-11   -10.037   -10.163    -0.126     (0)  
   AlHSO4+2        4.173e-11   1.305e-11   -10.380   -10.884    -0.505     (0)  
   FeHSO4+2        5.388e-15   1.685e-15   -14.269   -14.773    -0.505     (0)  
Zn            3.349e-04
   Zn+2            1.484e-04   4.471e-05    -3.829    -4.350    -0.521    -22.75
   ZnSO4           1.356e-04   1.417e-04    -3.868    -3.849     0.019     (0)  
   Zn(SO4)2-2      4.980e-05   1.558e-05    -4.303    -4.808    -0.505     (0)  
   ZnCl+           1.093e-06   8.172e-07    -5.961    -6.088    -0.126     -1.42
   ZnOH+           2.411e-08   1.803e-08    -7.618    -7.744    -0.126     (0)  
   ZnHCO3+         8.960e-09   6.701e-09    -8.048    -8.174    -0.126     (0)  
   ZnCl2           5.557e-09   5.810e-09    -8.255    -8.236     0.019     24.06
   ZnCO3           1.756e-10   1.836e-10    -9.755    -9.736     0.019     (0)  
   Zn(OH)2         7.280e-11   7.611e-11   -10.138   -10.119     0.019     (0)  
   ZnCl3-          5.919e-11   4.427e-11   -10.228   -10.354    -0.126     54.08
   ZnCl4-2         4.816e-13   1.506e-13   -12.317   -12.822    -0.505     89.16
   Zn(CO3)2-2      2.583e-16   8.078e-17   -15.588   -16.093    -0.505     (0)  
   Zn(OH)3-        1.183e-16   8.850e-17   -15.927   -16.053    -0.126     (0)  
   Zn(OH)4-2       1.649e-23   5.158e-24   -22.783   -23.288    -0.505     (0)  

------------------------------Saturation indices-------------------------------

	Phase               SI   log IAP   log K(298 K,   1 atm)

	Al(OH)3(a)       -0.00     10.80   10.80  Al(OH)3
	AlOHSO4          -0.00     -2.20   -2.20  AlOHSO4
	Alunite           9.49      8.09   -1.40  KAl3(SO4)2(OH)6
	Anhydrite        -0.36     -4.58   -4.22  CaSO4
	Aragonite        -5.06    -13.40   -8.34  CaCO3
	Calcite          -4.92    -13.40   -8.48  CaCO3
	CH4(g)          -48.17    -51.02   -2.84  CH4
	CO2(g)           -3.67     -5.14   -1.47  CO2	 Pressure   0.0 atm, phi 1.000.
	Dolomite         -9.56    -26.65  -17.09  CaMg(CO3)2
	Fe(OH)3          -0.00      4.89    4.89  Fe(OH)3
	Fe(OH)3(a)       -0.00      4.89    4.89  Fe(OH)3
	FeS(ppt)        -36.57    -40.49   -3.92  FeS
	Gibbsite          2.69     10.80    8.11  Al(OH)3
	Goethite          5.89      4.89   -1.00  FeOOH
	Gypsum           -0.00     -4.58   -4.58  CaSO4:2H2O
	H2(g)           -17.62    -20.72   -3.10  H2
	H2O(g)           -1.50     -0.00    1.50  H2O
	H2S(g)          -41.63    -49.62   -7.99  H2S
	Halite           -5.93     -4.34    1.58  NaCl
	Hausmannite     -20.85     40.18   61.03  Mn3O4
	Hematite         13.79      9.79   -4.01  Fe2O3
	Jarosite-K       -0.43     -9.64   -9.21  KFe3(SO4)2(OH)6
	Mackinawite     -35.84    -40.49   -4.65  FeS
	Manganite        -9.02     16.32   25.34  MnOOH
	Melanterite      -1.67     -3.88   -2.21  FeSO4:7H2O
	MnO2            -16.28     25.10   41.38  MnO2
	O2(g)           -48.05    -50.95   -2.89  O2
	Pyrite          -54.06    -72.54  -18.48  FeS2
	Pyrochroite      -7.66      7.54   15.20  Mn(OH)2
	Pyrolusite      -16.28     25.10   41.38  MnO2:H2O
	Rhodochrosite    -3.15    -14.28  -11.13  MnCO3
	Siderite         -1.80    -12.69  -10.89  FeCO3
	Smithsonite      -5.04    -15.04  -10.00  ZnCO3
	Sphalerite      -31.22    -42.84  -11.62  ZnS
	Sulfur          -29.99    -25.11    4.88  S
	Zn(OH)2(e)       -4.72      6.78   11.50  Zn(OH)2



Cell 5.

Using solution 5.	Solution after simulation 1.
Using pure phase assemblage 5.	Pure-phase assemblage after simulation 1.

-------------------------------Phase assemblage--------------------------------

                                                      Moles in assemblage
Phase               SI  log IAP  log K(T, P)   Initial       Final       Delta

Al(OH)3(a)        0.00    10.80     10.80    1.552e-04   2.754e-04   1.203e-04
AlOHSO4          -3.19    -5.39     -2.20    0.000e+00           0   0.000e+00
Calcite           0.00    -8.48     -8.48    7.844e-02   7.118e-02  -7.259e-03
Fe(OH)3           0.00     4.89      4.89    8.176e-01   8.198e-01   2.250e-03
Gypsum           -0.00    -4.58     -4.58    5.669e-02   6.366e-02   6.971e-03
MnO2            -19.40    21.98     41.38    0.000e+00           0   0.000e+00

-----------------------------Solution composition------------------------------

	Elements           Molality       Moles

	Al                2.695e-05   2.694e-05
	C                 7.272e-03   7.269e-03
	Ca                1.079e-02   1.079e-02
	Cl                9.643e-03   9.640e-03
	Cu                2.436e-03   2.435e-03
	Fe                5.079e-02   5.077e-02
	K                 2.030e-04   2.029e-04
	Mg                1.604e-02   1.603e-02
	Mn                1.360e-03   1.360e-03
	Na                9.542e-03   9.538e-03
	S                 7.689e-02   7.686e-02
	Zn                3.350e-04   3.348e-04

----------------------------Description of solution----------------------------

                                       pH  =   7.153      Charge balance
                                       pe  =  -1.504      Adjusted to redox equilibrium
       Specific Conductance (uS/cm, 25 oC) = 8181
                          Density (g/cm3)  =   1.00910
                        Activity of water  =   0.997
                           Ionic strength  =   1.845e-01
                       Mass of water (kg)  =   9.996e-01
                 Total alkalinity (eq/kg)  =   7.466e-03
                       Total CO2 (mol/kg)  =   7.272e-03
                      Temperature (deg C)  =  25.00
                  Electrical balance (eq)  =  -9.361e-13
 Percent error, 100*(Cat-|An|)/(Cat+|An|)  =  -0.00
                               Iterations  =  10
                                  Total H  = 1.109758e+02
                                  Total O  = 5.581362e+01

----------------------------Distribution of species----------------------------

                                               Log       Log       Log    mole V
   Species          Molality    Activity  Molality  Activity     Gamma   cm3/mol

   OH-             1.991e-07   1.421e-07    -6.701    -6.848    -0.147     -3.41
   H+              8.789e-08   7.037e-08    -7.056    -7.153    -0.097      0.00
   H2O             5.551e+01   9.975e-01     1.744    -0.001     0.000     18.07
Al            2.695e-05
   Al(OH)4-        2.579e-05   1.934e-05    -4.589    -4.714    -0.125     (0)  
   Al(OH)3         6.937e-07   7.238e-07    -6.159    -6.140     0.018     (0)  
   Al(OH)2+        4.622e-07   3.465e-07    -6.335    -6.460    -0.125     (0)  
   AlOH+2          9.866e-09   3.119e-09    -8.006    -8.506    -0.500    -26.22
   AlSO4+          1.208e-09   9.059e-10    -8.918    -9.043    -0.125     (0)  
   Al(SO4)2-       4.940e-10   3.704e-10    -9.306    -9.431    -0.125     (0)  
   Al+3            1.637e-10   2.216e-11    -9.786   -10.655    -0.869    -40.98
   AlHSO4+2        1.788e-17   5.653e-18   -16.748   -17.248    -0.500     (0)  
C(-4)         5.885e-25
   CH4             5.885e-25   6.140e-25   -24.230   -24.212     0.018     32.22
C(4)          7.272e-03
   HCO3-           3.244e-03   2.436e-03    -2.489    -2.613    -0.124     25.36
   FeHCO3+         2.964e-03   2.223e-03    -2.528    -2.653    -0.125     (0)  
   CO2             3.704e-04   3.865e-04    -3.431    -3.413     0.018     24.74
   FeCO3           3.406e-04   3.553e-04    -3.468    -3.449     0.018     (0)  
   MgHCO3+         1.050e-04   7.876e-05    -3.979    -4.104    -0.125      5.85
   CaHCO3+         8.444e-05   6.342e-05    -4.073    -4.198    -0.124     10.04
   MnHCO3+         6.988e-05   5.240e-05    -4.156    -4.281    -0.125     (0)  
   MnCO3           2.983e-05   3.112e-05    -4.525    -4.507     0.018     (0)  
   ZnHCO3+         1.717e-05   1.288e-05    -4.765    -4.890    -0.125     (0)  
   NaHCO3          1.562e-05   1.630e-05    -4.806    -4.788     0.018     29.13
   ZnCO3           1.303e-05   1.360e-05    -4.885    -4.866     0.018     (0)  
   CaCO3           5.333e-06   5.565e-06    -5.273    -5.255     0.018    -14.60
   CO3-2           5.103e-06   1.624e-06    -5.292    -5.789    -0.497     -2.43
   MgCO3           4.102e-06   4.280e-06    -5.387    -5.369     0.018    -17.09
   Zn(CO3)2-2      1.493e-06   4.721e-07    -5.826    -6.326    -0.500     (0)  
   NaCO3-          2.698e-07   2.023e-07    -6.569    -6.694    -0.125     -1.57
Ca            1.079e-02
   Ca+2            6.209e-03   2.040e-03    -2.207    -2.690    -0.483    -17.37
   CaSO4           4.496e-03   4.691e-03    -2.347    -2.329     0.018      7.50
   CaHCO3+         8.444e-05   6.342e-05    -4.073    -4.198    -0.124     10.04
   CaCO3           5.333e-06   5.565e-06    -5.273    -5.255     0.018    -14.60
   CaOH+           6.400e-09   4.799e-09    -8.194    -8.319    -0.125     (0)  
   CaHSO4+         2.894e-09   2.170e-09    -8.539    -8.664    -0.125     (0)  
Cl            9.643e-03
   Cl-             9.519e-03   6.834e-03    -2.021    -2.165    -0.144     18.42
   FeCl+           1.148e-04   8.607e-05    -3.940    -4.065    -0.125     (0)  
   MnCl+           8.959e-06   6.718e-06    -5.048    -5.173    -0.125      6.63
   ZnCl+           1.030e-06   7.721e-07    -5.987    -6.112    -0.125     -1.43
   MnCl2           1.921e-08   2.004e-08    -7.717    -7.698     0.018     (0)  
   ZnCl2           5.296e-09   5.526e-09    -8.276    -8.258     0.018     24.06
   ZnCl3-          5.651e-11   4.237e-11   -10.248   -10.373    -0.125     54.07
   MnCl3-          5.031e-11   3.772e-11   -10.298   -10.423    -0.125     (0)  
   ZnCl4-2         4.590e-13   1.451e-13   -12.338   -12.838    -0.500     89.12
   FeCl+2          1.783e-17   5.638e-18   -16.749   -17.249    -0.500     (0)  
   FeCl2+          2.295e-19   1.721e-19   -18.639   -18.764    -0.125     (0)  
   FeCl3           1.127e-22   1.176e-22   -21.948   -21.929     0.018     (0)  
Cu(1)         2.435e-03
   Cu+             2.435e-03   1.677e-03    -2.613    -2.775    -0.162     (0)  
Cu(2)         9.752e-07
   Cu(OH)2         4.032e-07   4.207e-07    -6.395    -6.376     0.018     (0)  
   Cu+2            2.989e-07   1.002e-07    -6.525    -6.999    -0.475    -23.09
   CuSO4           2.536e-07   2.646e-07    -6.596    -6.577     0.018     (0)  
   CuOH+           1.961e-08   1.420e-08    -7.708    -7.848    -0.140     (0)  
   Cu(OH)3-        4.791e-13   3.593e-13   -12.320   -12.445    -0.125     (0)  
   Cu(OH)4-2       3.214e-18   1.016e-18   -17.493   -17.993    -0.500     (0)  
Fe(2)         5.079e-02
   Fe+2            2.721e-02   9.123e-03    -1.565    -2.040    -0.475    -20.69
   FeSO4           2.010e-02   2.098e-02    -1.697    -1.678     0.018     (0)  
   FeHCO3+         2.964e-03   2.223e-03    -2.528    -2.653    -0.125     (0)  
   FeCO3           3.406e-04   3.553e-04    -3.468    -3.449     0.018     (0)  
   FeCl+           1.148e-04   8.607e-05    -3.940    -4.065    -0.125     (0)  
   FeOH+           5.454e-05   4.089e-05    -4.263    -4.388    -0.125     (0)  
   FeHSO4+         1.294e-08   9.703e-09    -7.888    -8.013    -0.125     (0)  
   Fe(HS)2         5.440e-35   5.676e-35   -34.264   -34.246     0.018     (0)  
   Fe(HS)3-        0.000e+00   0.000e+00   -52.662   -52.787    -0.125     (0)  
Fe(3)         3.656e-08
   Fe(OH)3         2.054e-08   2.143e-08    -7.687    -7.669     0.018     (0)  
   Fe(OH)2+        1.565e-08   1.174e-08    -7.805    -7.931    -0.125     (0)  
   Fe(OH)4-        3.694e-10   2.770e-10    -9.432    -9.557    -0.125     (0)  
   FeOH+2          7.908e-12   2.500e-12   -11.102   -11.602    -0.500     (0)  
   FeSO4+          5.165e-15   3.873e-15   -14.287   -14.412    -0.125     (0)  
   Fe(SO4)2-       1.461e-15   1.096e-15   -14.835   -14.960    -0.125     (0)  
   Fe+3            2.019e-16   2.732e-17   -15.695   -16.564    -0.869     (0)  
   FeCl+2          1.783e-17   5.638e-18   -16.749   -17.249    -0.500     (0)  
   FeCl2+          2.295e-19   1.721e-19   -18.639   -18.764    -0.125     (0)  
   Fe2(OH)2+4      1.684e-20   1.683e-22   -19.774   -21.774    -2.000     (0)  
   FeHSO4+2        2.309e-21   7.299e-22   -20.637   -21.137    -0.500     (0)  
   FeCl3           1.127e-22   1.176e-22   -21.948   -21.929     0.018     (0)  
   Fe3(OH)4+5      5.507e-25   4.125e-28   -24.259   -27.385    -3.125     (0)  
H(0)          6.835e-15
   H2              3.417e-15   3.566e-15   -14.466   -14.448     0.018     28.61
K             2.030e-04
   K+              1.868e-04   1.341e-04    -3.729    -3.873    -0.144      9.32
   KSO4-           1.625e-05   1.218e-05    -4.789    -4.914    -0.125     (0)  
   KOH             6.317e-12   6.591e-12   -11.200   -11.181     0.018     (0)  
Mg            1.604e-02
   MgSO4           8.025e-03   8.374e-03    -2.096    -2.077     0.018      5.84
   Mg+2            7.904e-03   2.763e-03    -2.102    -2.559    -0.457    -20.43
   MgHCO3+         1.050e-04   7.876e-05    -3.979    -4.104    -0.125      5.85
   MgCO3           4.102e-06   4.280e-06    -5.387    -5.369     0.018    -17.09
   MgOH+           1.896e-07   1.422e-07    -6.722    -6.847    -0.125     (0)  
Mn(2)         1.360e-03
   Mn+2            7.197e-04   2.413e-04    -3.143    -3.617    -0.475    -15.58
   MnSO4           5.318e-04   5.548e-04    -3.274    -3.256     0.018      4.99
   MnHCO3+         6.988e-05   5.240e-05    -4.156    -4.281    -0.125     (0)  
   MnCO3           2.983e-05   3.112e-05    -4.525    -4.507     0.018     (0)  
   MnCl+           8.959e-06   6.718e-06    -5.048    -5.173    -0.125      6.63
   MnOH+           1.172e-07   8.792e-08    -6.931    -7.056    -0.125     (0)  
   MnCl2           1.921e-08   2.004e-08    -7.717    -7.698     0.018     (0)  
   MnCl3-          5.031e-11   3.772e-11   -10.298   -10.423    -0.125     (0)  
Mn(3)         3.119e-30
   Mn+3            3.119e-30   2.338e-31   -29.506   -30.631    -1.125     (0)  
Na            9.542e-03
   Na+             8.948e-03   6.691e-03    -2.048    -2.174    -0.126     -0.89
   NaSO4-          5.783e-04   4.336e-04    -3.238    -3.363    -0.125     17.69
   NaHCO3          1.562e-05   1.630e-05    -4.806    -4.788     0.018     29.13
   NaCO3-          2.698e-07   2.023e-07    -6.569    -6.694    -0.125     -1.57
   NaOH            9.110e-20   9.505e-20   -19.040   -19.022     0.018     (0)  
O(0)          0.000e+00
   O2              0.000e+00   0.000e+00   -63.505   -63.486     0.018     30.40
S(-2)         5.262e-21
   HS-             3.703e-21   2.642e-21   -20.431   -20.578    -0.147     20.97
   H2S             1.558e-21   1.626e-21   -20.807   -20.789     0.018     37.16
   S-2             1.480e-26   4.535e-27   -25.830   -26.343    -0.514     (0)  
   Fe(HS)2         5.440e-35   5.676e-35   -34.264   -34.246     0.018     (0)  
   Fe(HS)3-        0.000e+00   0.000e+00   -52.662   -52.787    -0.125     (0)  
S(6)          7.689e-02
   SO4-2           4.293e-02   1.293e-02    -1.367    -1.888    -0.521     16.46
   FeSO4           2.010e-02   2.098e-02    -1.697    -1.678     0.018     (0)  
   MgSO4           8.025e-03   8.374e-03    -2.096    -2.077     0.018      5.84
   CaSO4           4.496e-03   4.691e-03    -2.347    -2.329     0.018      7.50
   NaSO4-          5.783e-04   4.336e-04    -3.238    -3.363    -0.125     17.69
   MnSO4           5.318e-04   5.548e-04    -3.274    -3.256     0.018      4.99
   ZnSO4           1.219e-04   1.272e-04    -3.914    -3.895     0.018     (0)  
   Zn(SO4)2-2      4.230e-05   1.337e-05    -4.374    -4.874    -0.500     (0)  
   KSO4-           1.625e-05   1.218e-05    -4.789    -4.914    -0.125     (0)  
   CuSO4           2.536e-07   2.646e-07    -6.596    -6.577     0.018     (0)  
   HSO4-           1.180e-07   8.847e-08    -6.928    -7.053    -0.125     35.54
   FeHSO4+         1.294e-08   9.703e-09    -7.888    -8.013    -0.125     (0)  
   CaHSO4+         2.894e-09   2.170e-09    -8.539    -8.664    -0.125     (0)  
   AlSO4+          1.208e-09   9.059e-10    -8.918    -9.043    -0.125     (0)  
   Al(SO4)2-       4.940e-10   3.704e-10    -9.306    -9.431    -0.125     (0)  
   FeSO4+          5.165e-15   3.873e-15   -14.287   -14.412    -0.125     (0)  
   Fe(SO4)2-       1.461e-15   1.096e-15   -14.835   -14.960    -0.125     (0)  
   AlHSO4+2        1.788e-17   5.653e-18   -16.748   -17.248    -0.500     (0)  
   FeHSO4+2        2.309e-21   7.299e-22   -20.637   -21.137    -0.500     (0)  
Zn            3.350e-04
   Zn+2            1.370e-04   4.198e-05    -3.863    -4.377    -0.514    -22.79
   ZnSO4           1.219e-04   1.272e-04    -3.914    -3.895     0.018     (0)  
   Zn(SO4)2-2      4.230e-05   1.337e-05    -4.374    -4.874    -0.500     (0)  
   ZnHCO3+         1.717e-05   1.288e-05    -4.765    -4.890    -0.125     (0)  
   ZnCO3           1.303e-05   1.360e-05    -4.885    -4.866     0.018     (0)  
   Zn(CO3)2-2      1.493e-06   4.721e-07    -5.826    -6.326    -0.500     (0)  
   ZnCl+           1.030e-06   7.721e-07    -5.987    -6.112    -0.125     -1.43
   ZnOH+           8.700e-07   6.524e-07    -6.060    -6.185    -0.125     (0)  
   Zn(OH)2         1.018e-07   1.062e-07    -6.992    -6.974     0.018     (0)  
   ZnCl2           5.296e-09   5.526e-09    -8.276    -8.258     0.018     24.06
   ZnCl3-          5.651e-11   4.237e-11   -10.248   -10.373    -0.125     54.07
   Zn(OH)3-        6.347e-12   4.759e-12   -11.197   -11.322    -0.125     (0)  
   ZnCl4-2         4.590e-13   1.451e-13   -12.338   -12.838    -0.500     89.12
   Zn(OH)4-2       3.382e-17   1.069e-17   -16.471   -16.971    -0.500     (0)  

------------------------------Saturation indices-------------------------------

	Phase               SI   log IAP   log K(298 K,   1 atm)

	Al(OH)3(a)        0.00     10.80   10.80  Al(OH)3
	AlOHSO4          -3.19     -5.39   -2.20  AlOHSO4
	Alunite           4.70      3.30   -1.40  KAl3(SO4)2(OH)6
	Anhydrite        -0.36     -4.58   -4.22  CaSO4
	Aragonite        -0.14     -8.48   -8.34  CaCO3
	Calcite           0.00     -8.48   -8.48  CaCO3
	CH4(g)          -21.37    -24.21   -2.84  CH4
	CO2(g)           -1.94     -3.41   -1.47  CO2	 Pressure   0.0 atm, phi 1.000.
	Dolomite          0.26    -16.83  -17.09  CaMg(CO3)2
	Fe(OH)3           0.00      4.89    4.89  Fe(OH)3
	Fe(OH)3(a)        0.00      4.89    4.89  Fe(OH)3
	FeS(ppt)        -11.55    -15.47   -3.92  FeS
	Gibbsite          2.69     10.80    8.11  Al(OH)3
	Goethite          5.89      4.89   -1.00  FeOOH
	Gypsum           -0.00     -4.58   -4.58  CaSO4:2H2O
	H2(g)           -11.35    -14.45   -3.10  H2
	H2O(g)           -1.50     -0.00    1.50  H2O
	H2S(g)          -19.74    -27.73   -7.99  H2S
	Halite           -5.92     -4.34    1.58  NaCl
	Hausmannite     -17.67     43.36   61.03  Mn3O4
	Hematite         13.79      9.79   -4.01  Fe2O3
	Jarosite-K       -5.22    -14.43   -9.21  KFe3(SO4)2(OH)6
	Mackinawite     -10.82    -15.47   -4.65  FeS
	Manganite        -9.01     16.33   25.34  MnOOH
	Melanterite      -1.73     -3.94   -2.21  FeSO4:7H2O
	MnO2            -19.40     21.98   41.38  MnO2
	O2(g)           -60.59    -63.49   -2.89  O2
	Pyrite          -13.42    -31.90  -18.48  FeS2
	Pyrochroite      -4.51     10.69   15.20  Mn(OH)2
	Pyrolusite      -19.40     21.98   41.38  MnO2:H2O
	Rhodochrosite     1.72     -9.41  -11.13  MnCO3
	Siderite          3.06     -7.83  -10.89  FeCO3
	Smithsonite      -0.17    -10.17  -10.00  ZnCO3
	Sphalerite       -6.18    -17.80  -11.62  ZnS
	Sulfur          -14.37     -9.49    4.88  S
	Zn(OH)2(e)       -1.57      9.93   11.50  Zn(OH)2


------------------
End of simulation.
------------------

------------------------------------
Reading input data for simulation 2.
------------------------------------

-----------
End of run.
-----------

