   Input file: joe
  Output file: joe.out
Database file: ../database/phreeqc.dat

------------------
Reading data base.
------------------

	SOLUTION_MASTER_SPECIES
	SOLUTION_SPECIES
	PHASES
	EXCHANGE_MASTER_SPECIES
	EXCHANGE_SPECIES
	SURFACE_MASTER_SPECIES
	SURFACE_SPECIES
	RATES
	END
------------------------------------
Reading input data for simulation 1.
------------------------------------

	DATABASE ../database/phreeqc.dat
	PRINT
		status false
	SOLUTION 1	WLB ms APW04
		temp	25.
		ph	6.692	charge
		dens	1.0
		pe	4.0
		units	mol/kgw
		Ca	6.227e-03
		Mg	4.850e-03
		Na	1.863e-01
		K	3.200e-03
		Sr	5.800e-04
		Cl	2.000e-01
		C	1.646e-02	as HCO3
		F	2.026e-04
		Si	2.700e-04	as Si(OH)4
	EXCHANGE	1
		equilibrate	1
		X	1.06534
	PURE_PHASES	1
		Calcite		0.0
		Fluorite	0.0
		CO2(g)		-0.94
	EXCHANGE_MASTER_SPECIES
		X	X-	
	EXCHANGE_SPECIES
		X- = X-
		log_k		0.0
		Na+ + X- = NaX
		log_k		0.0
		K+ + X- = KX
		log_k		0.819
		H+ + X- = HX
		log_k		1.     0
		Ca+2 + 2X- = CaX2
		log_k		0.564
		Mg+2 + 2X- = MgX2
		log_k		0.182
		Sr+2 + 2X- = SrX2
		log_k		0.529
	SAVE exchange 2
	END
-------------------------------------------
Beginning of initial solution calculations.
-------------------------------------------

Initial solution 1.	WLB ms APW04

-----------------------------Solution composition------------------------------

	Elements           Molality       Moles

	C                 1.646e-02   1.646e-02
	Ca                6.227e-03   6.227e-03
	Cl                2.000e-01   2.000e-01
	F                 2.026e-04   2.026e-04
	K                 3.200e-03   3.200e-03
	Mg                4.850e-03   4.850e-03
	Na                1.863e-01   1.863e-01
	Si                2.700e-04   2.700e-04
	Sr                5.800e-04   5.800e-04

----------------------------Description of solution----------------------------

                                       pH  =   6.657      Charge balance
                                       pe  =   4.000    
       Specific Conductance (uS/cm, 25 oC) = 21464
                          Density (g/cm3)  =   1.00610
                        Activity of water  =   0.993
                           Ionic strength  =   2.224e-01
                       Mass of water (kg)  =   1.000e+00
                 Total alkalinity (eq/kg)  =   1.261e-02
                       Total CO2 (mol/kg)  =   1.646e-02
                      Temperature (deg C)  =  25.00
                  Electrical balance (eq)  =  -6.618e-17
 Percent error, 100*(Cat-|An|)/(Cat+|An|)  =  -0.00
                               Iterations  =   8
                                  Total H  = 1.110261e+02
                                  Total O  = 5.555281e+01

----------------------------Distribution of species----------------------------

                                               Log       Log       Log    mole V
   Species          Molality    Activity  Molality  Activity     Gamma   cm3/mol

   H+              2.779e-07   2.205e-07    -6.556    -6.657    -0.100      0.00
   OH-             6.462e-08   4.513e-08    -7.190    -7.346    -0.156     -3.31
   H2O             5.551e+01   9.929e-01     1.744    -0.003     0.000     18.07
C(-4)         0.000e+00
   CH4             0.000e+00   0.000e+00   -63.268   -63.246     0.022     32.22
C(4)          1.646e-02
   HCO3-           1.102e-02   8.153e-03    -1.958    -2.089    -0.131     25.48
   CO2             3.868e-03   4.071e-03    -2.412    -2.390     0.022     24.74
   NaHCO3          1.059e-03   1.115e-03    -2.975    -2.953     0.022     29.13
   CaHCO3+         2.617e-04   1.935e-04    -3.582    -3.713    -0.131     10.08
   MgHCO3+         1.994e-04   1.480e-04    -3.700    -3.830    -0.129      5.88
   SrHCO3+         2.915e-05   2.156e-05    -4.535    -4.666    -0.131     (0)  
   NaCO3-          5.947e-06   4.415e-06    -5.226    -5.355    -0.129     -1.33
   CO3-2           5.793e-06   1.734e-06    -5.237    -5.761    -0.524     -2.26
   CaCO3           5.149e-06   5.419e-06    -5.288    -5.266     0.022    -14.60
   MgCO3           2.439e-06   2.567e-06    -5.613    -5.591     0.022    -17.09
   SrCO3           1.818e-07   1.913e-07    -6.740    -6.718     0.022    -14.13
Ca            6.227e-03
   Ca+2            5.958e-03   1.860e-03    -2.225    -2.730    -0.505    -17.31
   CaHCO3+         2.617e-04   1.935e-04    -3.582    -3.713    -0.131     10.08
   CaCO3           5.149e-06   5.419e-06    -5.288    -5.266     0.022    -14.60
   CaF+            2.653e-06   1.969e-06    -5.576    -5.706    -0.129     -7.01
   CaOH+           1.873e-09   1.390e-09    -8.727    -8.857    -0.129     (0)  
Cl            2.000e-01
   Cl-             2.000e-01   1.407e-01    -0.699    -0.852    -0.153     18.46
F             2.026e-04
   F-              1.740e-04   1.215e-04    -3.759    -3.915    -0.156     -0.98
   MgF+            1.678e-05   1.246e-05    -4.775    -4.905    -0.129    -10.17
   NaF             9.085e-06   9.563e-06    -5.042    -5.019     0.022      7.26
   CaF+            2.653e-06   1.969e-06    -5.576    -5.706    -0.129     -7.01
   HF              3.819e-08   4.019e-08    -7.418    -7.396     0.022     12.50
   HF2-            2.525e-11   1.874e-11   -10.598   -10.727    -0.129     22.47
   SiF6-2          1.110e-23   3.369e-24   -22.955   -23.472    -0.518     44.20
H(0)          6.542e-25
   H2              3.271e-25   3.443e-25   -24.485   -24.463     0.022     28.61
K             3.200e-03
   K+              3.200e-03   2.252e-03    -2.495    -2.647    -0.153      9.36
   KOH             3.340e-11   3.516e-11   -10.476   -10.454     0.022     (0)  
Mg            4.850e-03
   Mg+2            4.631e-03   1.551e-03    -2.334    -2.809    -0.475    -20.37
   MgHCO3+         1.994e-04   1.480e-04    -3.700    -3.830    -0.129      5.88
   MgF+            1.678e-05   1.246e-05    -4.775    -4.905    -0.129    -10.17
   MgCO3           2.439e-06   2.567e-06    -5.613    -5.591     0.022    -17.09
   MgOH+           3.417e-08   2.536e-08    -7.466    -7.596    -0.129     (0)  
Na            1.863e-01
   Na+             1.852e-01   1.367e-01    -0.732    -0.864    -0.132     -0.86
   NaHCO3          1.059e-03   1.115e-03    -2.975    -2.953     0.022     29.13
   NaF             9.085e-06   9.563e-06    -5.042    -5.019     0.022      7.26
   NaCO3-          5.947e-06   4.415e-06    -5.226    -5.355    -0.129     -1.33
   NaOH            5.862e-19   6.170e-19   -18.232   -18.210     0.022     (0)  
O(0)          0.000e+00
   O2              0.000e+00   0.000e+00   -43.482   -43.460     0.022     30.40
Si            2.700e-04
   H4SiO4          2.697e-04   2.839e-04    -3.569    -3.547     0.022     52.08
   H3SiO4-         2.557e-07   1.898e-07    -6.592    -6.722    -0.129     28.38
   H2SiO4-2        1.929e-13   5.856e-14   -12.715   -13.232    -0.518     (0)  
   SiF6-2          1.110e-23   3.369e-24   -22.955   -23.472    -0.518     44.20
Sr            5.800e-04
   Sr+2            5.507e-04   1.729e-04    -3.259    -3.762    -0.503    -17.56
   SrHCO3+         2.915e-05   2.156e-05    -4.535    -4.666    -0.131     (0)  
   SrCO3           1.818e-07   1.913e-07    -6.740    -6.718     0.022    -14.13
   SrOH+           5.454e-11   3.992e-11   -10.263   -10.399    -0.136     (0)  

------------------------------Saturation indices-------------------------------

	Phase               SI   log IAP   log K(298 K,   1 atm)

	Aragonite        -0.16     -8.49   -8.34  CaCO3
	Calcite          -0.01     -8.49   -8.48  CaCO3
	CH4(g)          -60.40    -63.25   -2.84  CH4
	Chalcedony        0.01     -3.54   -3.55  SiO2
	Chrysotile       -7.79     24.41   32.20  Mg3Si2O5(OH)4
	CO2(g)           -0.92     -2.39   -1.47  CO2
	Dolomite          0.03    -17.06  -17.09  CaMg(CO3)2
	Fluorite          0.04    -10.56  -10.60  CaF2
	H2(g)           -21.36    -24.46   -3.10  H2
	H2O(g)           -1.51     -0.00    1.50  H2O
	Halite           -3.30     -1.72    1.58  NaCl
	O2(g)           -40.57    -43.46   -2.89  O2
	Quartz            0.44     -3.54   -3.98  SiO2
	Sepiolite        -5.39     10.37   15.76  Mg2Si3O7.5OH:3H2O
	Sepiolite(d)     -8.29     10.37   18.66  Mg2Si3O7.5OH:3H2O
	SiO2(a)          -0.83     -3.54   -2.71  SiO2
	Strontianite     -0.25     -9.52   -9.27  SrCO3
	Talc             -4.06     17.34   21.40  Mg3Si4O10(OH)2


-------------------------------------------------------
Beginning of initial exchange-composition calculations.
-------------------------------------------------------

Exchange 1.	

X                1.065e+00 mol

	                               Equiv-    Equivalent      Log 
	Species             Moles      alents      Fraction     Gamma

	NaX               7.272e-01   7.272e-01   6.826e-01     0.000
	CaX2              9.051e-02   1.810e-01   1.699e-01     0.000
	KX                7.894e-02   7.894e-02   7.410e-02     0.000
	MgX2              3.132e-02   6.263e-02   5.879e-02     0.000
	SrX2              7.758e-03   1.552e-02   1.456e-02     0.000
	HX                1.173e-05   1.173e-05   1.101e-05     0.000

-----------------------------------------
Beginning of batch-reaction calculations.
-----------------------------------------

Reaction step 1.

Using solution 1.	WLB ms APW04
Using exchange 1.	Exchange assemblage after simulation 1.
Using pure phase assemblage 1.	

-------------------------------Phase assemblage--------------------------------

                                                      Moles in assemblage
Phase               SI  log IAP  log K(T, P)   Initial       Final       Delta

CO2(g)           -0.94    -2.41     -1.47    1.000e+01   1.000e+01   2.002e-04
Calcite          -0.00    -8.48     -8.48    1.000e+01   1.000e+01   4.270e-05
Fluorite         -0.00   -10.60    -10.60    1.000e+01   1.000e+01   4.372e-06

-----------------------------Exchange composition------------------------------

X                1.065e+00 mol

	                               Equiv-    Equivalent      Log 
	Species             Moles      alents      Fraction     Gamma

	NaX               7.273e-01   7.273e-01   6.827e-01     0.000
	CaX2              9.047e-02   1.809e-01   1.698e-01     0.000
	KX                7.894e-02   7.894e-02   7.410e-02     0.000
	MgX2              3.132e-02   6.264e-02   5.880e-02     0.000
	SrX2              7.759e-03   1.552e-02   1.457e-02     0.000
	HX                1.133e-05   1.133e-05   1.064e-05     0.000

-----------------------------Solution composition------------------------------

	Elements           Molality       Moles

	C                 1.622e-02   1.622e-02
	Ca                6.218e-03   6.218e-03
	Cl                2.000e-01   2.000e-01
	F                 1.939e-04   1.939e-04
	K                 3.199e-03   3.199e-03
	Mg                4.845e-03   4.845e-03
	Na                1.862e-01   1.862e-01
	Si                2.700e-04   2.700e-04
	Sr                5.794e-04   5.794e-04

----------------------------Description of solution----------------------------

                                       pH  =   6.672      Charge balance
                                       pe  =  11.490      Adjusted to redox equilibrium
       Specific Conductance (uS/cm, 25 oC) = 21458
                          Density (g/cm3)  =   1.00609
                        Activity of water  =   0.993
                           Ionic strength  =   2.223e-01
                       Mass of water (kg)  =   1.000e+00
                 Total alkalinity (eq/kg)  =   1.253e-02
                       Total CO2 (mol/kg)  =   1.622e-02
                      Temperature (deg C)  =  25.00
                  Electrical balance (eq)  =  -1.077e-11
 Percent error, 100*(Cat-|An|)/(Cat+|An|)  =  -0.00
                               Iterations  =  10
                                  Total H  = 1.110261e+02
                                  Total O  = 5.555228e+01

----------------------------Distribution of species----------------------------

                                               Log       Log       Log    mole V
   Species          Molality    Activity  Molality  Activity     Gamma   cm3/mol

   H+              2.685e-07   2.130e-07    -6.571    -6.672    -0.100      0.00
   OH-             6.689e-08   4.671e-08    -7.175    -7.331    -0.156     -3.31
   H2O             5.551e+01   9.929e-01     1.744    -0.003     0.000     18.07
C(-4)         0.000e+00
   CH4             0.000e+00   0.000e+00  -123.328  -123.306     0.022     32.22
C(4)          1.622e-02
   HCO3-           1.095e-02   8.098e-03    -1.961    -2.092    -0.131     25.48
   CO2             3.712e-03   3.906e-03    -2.430    -2.408     0.022     24.74
   NaHCO3          1.052e-03   1.107e-03    -2.978    -2.956     0.022     29.13
   CaHCO3+         2.596e-04   1.920e-04    -3.586    -3.717    -0.131     10.08
   MgHCO3+         1.979e-04   1.469e-04    -3.704    -3.833    -0.129      5.88
   SrHCO3+         2.893e-05   2.140e-05    -4.539    -4.670    -0.131     (0)  
   NaCO3-          6.112e-06   4.537e-06    -5.214    -5.343    -0.129     -1.33
   CO3-2           5.954e-06   1.783e-06    -5.225    -5.749    -0.524     -2.26
   CaCO3           5.287e-06   5.565e-06    -5.277    -5.255     0.022    -14.60
   MgCO3           2.506e-06   2.637e-06    -5.601    -5.579     0.022    -17.09
   SrCO3           1.868e-07   1.966e-07    -6.729    -6.706     0.022    -14.13
Ca            6.218e-03
   Ca+2            5.950e-03   1.858e-03    -2.225    -2.731    -0.505    -17.31
   CaHCO3+         2.596e-04   1.920e-04    -3.586    -3.717    -0.131     10.08
   CaCO3           5.287e-06   5.565e-06    -5.277    -5.255     0.022    -14.60
   CaF+            2.536e-06   1.882e-06    -5.596    -5.725    -0.129     -7.01
   CaOH+           1.936e-09   1.437e-09    -8.713    -8.842    -0.129     (0)  
Cl            2.000e-01
   Cl-             2.000e-01   1.407e-01    -0.699    -0.852    -0.153     18.46
F             1.939e-04
   F-              1.665e-04   1.163e-04    -3.778    -3.934    -0.156     -0.98
   MgF+            1.605e-05   1.191e-05    -4.795    -4.924    -0.129    -10.17
   NaF             8.692e-06   9.149e-06    -5.061    -5.039     0.022      7.26
   CaF+            2.536e-06   1.882e-06    -5.596    -5.725    -0.129     -7.01
   HF              3.531e-08   3.716e-08    -7.452    -7.430     0.022     12.50
   HF2-            2.234e-11   1.658e-11   -10.651   -10.780    -0.129     22.47
   SiF6-2          7.423e-24   2.254e-24   -23.129   -23.647    -0.518     44.20
H(0)          6.387e-40
   H2              3.194e-40   3.361e-40   -39.496   -39.474     0.022     28.61
K             3.199e-03
   K+              3.199e-03   2.251e-03    -2.495    -2.648    -0.153      9.36
   KOH             3.456e-11   3.638e-11   -10.461   -10.439     0.022     (0)  
Mg            4.845e-03
   Mg+2            4.628e-03   1.551e-03    -2.335    -2.810    -0.475    -20.36
   MgHCO3+         1.979e-04   1.469e-04    -3.704    -3.833    -0.129      5.88
   MgF+            1.605e-05   1.191e-05    -4.795    -4.924    -0.129    -10.17
   MgCO3           2.506e-06   2.637e-06    -5.601    -5.579     0.022    -17.09
   MgOH+           3.535e-08   2.624e-08    -7.452    -7.581    -0.129     (0)  
Na            1.862e-01
   Na+             1.852e-01   1.367e-01    -0.732    -0.864    -0.132     -0.86
   NaHCO3          1.052e-03   1.107e-03    -2.978    -2.956     0.022     29.13
   NaF             8.692e-06   9.149e-06    -5.061    -5.039     0.022      7.26
   NaCO3-          6.112e-06   4.537e-06    -5.214    -5.343    -0.129     -1.33
   NaOH            6.067e-19   6.385e-19   -18.217   -18.195     0.022     (0)  
O(0)          6.913e-14
   O2              3.456e-14   3.638e-14   -13.461   -13.439     0.022     30.40
Si            2.700e-04
   H4SiO4          2.697e-04   2.839e-04    -3.569    -3.547     0.022     52.08
   H3SiO4-         2.647e-07   1.965e-07    -6.577    -6.707    -0.129     28.38
   H2SiO4-2        2.066e-13   6.274e-14   -12.685   -13.202    -0.518     (0)  
   SiF6-2          7.423e-24   2.254e-24   -23.129   -23.647    -0.518     44.20
Sr            5.794e-04
   Sr+2            5.503e-04   1.728e-04    -3.259    -3.763    -0.503    -17.56
   SrHCO3+         2.893e-05   2.140e-05    -4.539    -4.670    -0.131     (0)  
   SrCO3           1.868e-07   1.966e-07    -6.729    -6.706     0.022    -14.13
   SrOH+           5.641e-11   4.129e-11   -10.249   -10.384    -0.136     (0)  

------------------------------Saturation indices-------------------------------

	Phase               SI   log IAP   log K(298 K,   1 atm)

	Aragonite        -0.14     -8.48   -8.34  CaCO3
	Calcite          -0.00     -8.48   -8.48  CaCO3
	CH4(g)         -120.46   -123.31   -2.84  CH4
	Chalcedony        0.01     -3.54   -3.55  SiO2
	Chrysotile       -7.70     24.50   32.20  Mg3Si2O5(OH)4
	CO2(g)           -0.94     -2.41   -1.47  CO2	 Pressure   0.1 atm, phi 0.999.
	Dolomite          0.05    -17.04  -17.09  CaMg(CO3)2
	Fluorite         -0.00    -10.60  -10.60  CaF2
	H2(g)           -36.37    -39.47   -3.10  H2
	H2O(g)           -1.51     -0.00    1.50  H2O
	Halite           -3.30     -1.72    1.58  NaCl
	O2(g)           -10.55    -13.44   -2.89  O2
	Quartz            0.44     -3.54   -3.98  SiO2
	Sepiolite        -5.33     10.43   15.76  Mg2Si3O7.5OH:3H2O
	Sepiolite(d)     -8.23     10.43   18.66  Mg2Si3O7.5OH:3H2O
	SiO2(a)          -0.83     -3.54   -2.71  SiO2
	Strontianite     -0.24     -9.51   -9.27  SrCO3
	Talc             -3.97     17.43   21.40  Mg3Si4O10(OH)2


------------------
End of simulation.
------------------

------------------------------------
Reading input data for simulation 2.
------------------------------------

	SOLUTION 2
		temp	25
		ph	7.0	charge
		dens	1.0
		pe	4.0
		units	mol/kgw
		Cl	0.2
	MIX
		2	0.1
	PURE_PHASES 2
		Calcite 	0.0	0.1
		Fluorite	0.0	0.1
	USE exchange 2
	END
-------------------------------------------
Beginning of initial solution calculations.
-------------------------------------------

Initial solution 2.	

-----------------------------Solution composition------------------------------

	Elements           Molality       Moles

	Cl                2.000e-01   2.000e-01

----------------------------Description of solution----------------------------

                                       pH  =   0.797      Charge balance
                                       pe  =   4.000    
       Specific Conductance (uS/cm, 25 oC) = 73493
                          Density (g/cm3)  =   1.00063
                        Activity of water  =   0.993
                           Ionic strength  =   2.000e-01
                       Mass of water (kg)  =   1.000e+00
                 Total alkalinity (eq/kg)  =  -2.000e-01
                    Total carbon (mol/kg)  =   0.000e+00
                       Total CO2 (mol/kg)  =   0.000e+00
                      Temperature (deg C)  =  25.00
                  Electrical balance (eq)  =   5.497e-10
 Percent error, 100*(Cat-|An|)/(Cat+|An|)  =   0.00
                               Iterations  =   7
                                  Total H  = 1.112124e+02
                                  Total O  = 5.550622e+01

----------------------------Distribution of species----------------------------

                                               Log       Log       Log    mole V
   Species          Molality    Activity  Molality  Activity     Gamma   cm3/mol

   H+              2.000e-01   1.595e-01    -0.699    -0.797    -0.098      0.00
   OH-             8.827e-14   6.240e-14   -13.054   -13.205    -0.151     -3.37
   H2O             5.551e+01   9.932e-01     1.744    -0.003     0.000     18.07
Cl            2.000e-01
   Cl-             2.000e-01   1.424e-01    -0.699    -0.847    -0.148     18.44
H(0)          3.441e-13
   H2              1.720e-13   1.801e-13   -12.764   -12.744     0.020     28.61
O(0)          0.000e+00
   O2              0.000e+00   0.000e+00   -66.917   -66.897     0.020     30.40

------------------------------Saturation indices-------------------------------

	Phase               SI   log IAP   log K(298 K,   1 atm)

	H2(g)            -9.64    -12.74   -3.10  H2
	H2O(g)           -1.51     -0.00    1.50  H2O
	O2(g)           -64.00    -66.90   -2.89  O2


-----------------------------------------
Beginning of batch-reaction calculations.
-----------------------------------------

Reaction step 1.

Using mix 1.	
Using exchange 2.	Exchange assemblage after simulation 1.
Using pure phase assemblage 2.	

Mixture 1.	

	  1.000e-01 Solution 2	                                                       

-------------------------------Phase assemblage--------------------------------

                                                      Moles in assemblage
Phase               SI  log IAP  log K(T, P)   Initial       Final       Delta

Calcite          -0.00    -8.48     -8.48    1.000e-01   8.758e-02  -1.242e-02
Fluorite         -0.00   -10.60    -10.60    1.000e-01   9.999e-02  -8.490e-06

-----------------------------Exchange composition------------------------------

X                1.065e+00 mol

	                               Equiv-    Equivalent      Log 
	Species             Moles      alents      Fraction     Gamma

	NaX               7.064e-01   7.064e-01   6.630e-01     0.000
	CaX2              1.019e-01   2.037e-01   1.912e-01     0.000
	KX                7.858e-02   7.858e-02   7.376e-02     0.000
	MgX2              3.063e-02   6.126e-02   5.751e-02     0.000
	SrX2              7.673e-03   1.535e-02   1.440e-02     0.000
	HX                5.434e-05   5.434e-05   5.100e-05     0.000

-----------------------------Solution composition------------------------------

	Elements           Molality       Moles

	C                 1.240e-01   1.242e-02
	Ca                1.027e-02   1.028e-03
	Cl                1.997e-01   2.000e-02
	F                 1.696e-04   1.698e-05
	K                 3.646e-03   3.651e-04
	Mg                6.884e-03   6.894e-04
	Na                2.089e-01   2.092e-02
	Sr                8.580e-04   8.592e-05

----------------------------Description of solution----------------------------

                                       pH  =   5.939      Charge balance
                                       pe  =  -1.149      Adjusted to redox equilibrium
       Specific Conductance (uS/cm, 25 oC) = 23591
                          Density (g/cm3)  =   1.00956
                        Activity of water  =   0.991
                           Ionic strength  =   2.572e-01
                       Mass of water (kg)  =   1.001e-01
                 Total alkalinity (eq/kg)  =   4.870e-02
                       Total CO2 (mol/kg)  =   1.240e-01
                      Temperature (deg C)  =  25.00
                  Electrical balance (eq)  =   4.897e-11
 Percent error, 100*(Cat-|An|)/(Cat+|An|)  =   0.00
                               Iterations  =  16
                                  Total H  = 1.112120e+01
                                  Total O  = 5.587872e+00

----------------------------Distribution of species----------------------------

                                               Log       Log       Log    mole V
   Species          Molality    Activity  Molality  Activity     Gamma   cm3/mol

   H+              1.461e-06   1.151e-06    -5.835    -5.939    -0.103      0.00
   OH-             1.257e-08   8.627e-09    -7.901    -8.064    -0.163     -3.22
   H2O             5.551e+01   9.907e-01     1.744    -0.004     0.000     18.07
C(-4)         9.024e-16
   CH4             9.024e-16   9.575e-16   -15.045   -15.019     0.026     32.22
C(4)          1.240e-01
   CO2             7.532e-02   7.991e-02    -1.123    -1.097     0.026     24.74
   HCO3-           4.186e-02   3.059e-02    -1.378    -1.514    -0.136     25.59
   NaHCO3          4.314e-03   4.577e-03    -2.365    -2.339     0.026     29.13
   CaHCO3+         1.419e-03   1.037e-03    -2.848    -2.984    -0.136     10.11
   MgHCO3+         9.348e-04   6.894e-04    -3.029    -3.162    -0.132      5.92
   SrHCO3+         1.389e-04   1.015e-04    -3.857    -3.993    -0.136     (0)  
   CaCO3           5.245e-06   5.565e-06    -5.280    -5.255     0.026    -14.60
   NaCO3-          4.710e-06   3.473e-06    -5.327    -5.459    -0.132     -1.12
   CO3-2           4.369e-06   1.247e-06    -5.360    -5.904    -0.545     -2.11
   MgCO3           2.159e-06   2.291e-06    -5.666    -5.640     0.026    -17.09
   SrCO3           1.627e-07   1.726e-07    -6.789    -6.763     0.026    -14.13
Ca            1.027e-02
   Ca+2            8.841e-03   2.657e-03    -2.054    -2.576    -0.522    -17.25
   CaHCO3+         1.419e-03   1.037e-03    -2.848    -2.984    -0.136     10.11
   CaCO3           5.245e-06   5.565e-06    -5.280    -5.255     0.026    -14.60
   CaF+            3.052e-06   2.251e-06    -5.515    -5.648    -0.132     -6.98
   CaOH+           5.148e-10   3.796e-10    -9.288    -9.421    -0.132     (0)  
Cl            1.997e-01
   Cl-             1.997e-01   1.383e-01    -0.700    -0.859    -0.160     18.49
F             1.696e-04
   F-              1.417e-04   9.726e-05    -3.849    -4.012    -0.163     -0.95
   MgF+            1.678e-05   1.237e-05    -4.775    -4.907    -0.132    -10.13
   NaF             7.892e-06   8.374e-06    -5.103    -5.077     0.026      7.26
   CaF+            3.052e-06   2.251e-06    -5.515    -5.648    -0.132     -6.98
   HF              1.582e-07   1.679e-07    -6.801    -6.775     0.026     12.50
   HF2-            8.496e-11   6.265e-11   -10.071   -10.203    -0.132     22.50
H(0)          3.510e-13
   H2              1.755e-13   1.862e-13   -12.756   -12.730     0.026     28.61
K             3.646e-03
   K+              3.646e-03   2.525e-03    -2.438    -2.598    -0.160      9.40
   KOH             7.103e-12   7.536e-12   -11.149   -11.123     0.026     (0)  
Mg            6.884e-03
   Mg+2            5.930e-03   1.926e-03    -2.227    -2.715    -0.488    -20.31
   MgHCO3+         9.348e-04   6.894e-04    -3.029    -3.162    -0.132      5.92
   MgF+            1.678e-05   1.237e-05    -4.775    -4.907    -0.132    -10.13
   MgCO3           2.159e-06   2.291e-06    -5.666    -5.640     0.026    -17.09
   MgOH+           8.161e-09   6.018e-09    -8.088    -8.221    -0.132     (0)  
Na            2.089e-01
   Na+             2.046e-01   1.496e-01    -0.689    -0.825    -0.136     -0.84
   NaHCO3          4.314e-03   4.577e-03    -2.365    -2.339     0.026     29.13
   NaF             7.892e-06   8.374e-06    -5.103    -5.077     0.026      7.26
   NaCO3-          4.710e-06   3.473e-06    -5.327    -5.459    -0.132     -1.12
   NaOH            1.216e-19   1.291e-19   -18.915   -18.889     0.026     (0)  
O(0)          0.000e+00
   O2              0.000e+00   0.000e+00   -66.954   -66.928     0.026     30.40
Sr            8.580e-04
   Sr+2            7.189e-04   2.170e-04    -3.143    -3.664    -0.520    -17.50
   SrHCO3+         1.389e-04   1.015e-04    -3.857    -3.993    -0.136     (0)  
   SrCO3           1.627e-07   1.726e-07    -6.789    -6.763     0.026    -14.13
   SrOH+           1.325e-11   9.578e-12   -10.878   -11.019    -0.141     (0)  

------------------------------Saturation indices-------------------------------

	Phase               SI   log IAP   log K(298 K,   1 atm)

	Aragonite        -0.14     -8.48   -8.34  CaCO3
	Calcite          -0.00     -8.48   -8.48  CaCO3
	CH4(g)          -12.18    -15.02   -2.84  CH4
	CO2(g)            0.37     -1.10   -1.47  CO2
	Dolomite         -0.01    -17.10  -17.09  CaMg(CO3)2
	Fluorite         -0.00    -10.60  -10.60  CaF2
	H2(g)            -9.63    -12.73   -3.10  H2
	H2O(g)           -1.51     -0.00    1.50  H2O
	Halite           -3.27     -1.68    1.58  NaCl
	O2(g)           -64.04    -66.93   -2.89  O2
	Strontianite     -0.30     -9.57   -9.27  SrCO3


------------------
End of simulation.
------------------

------------------------------------
Reading input data for simulation 3.
------------------------------------

	MIX
		2	0.01
	USE pure_phases 2
	USE exchange 2
	END
-----------------------------------------
Beginning of batch-reaction calculations.
-----------------------------------------

Reaction step 1.

Using mix 1.	
Using exchange 2.	Exchange assemblage after simulation 1.
Using pure phase assemblage 2.	

Mixture 1.	

	  1.000e-02 Solution 2	                                                       

-------------------------------Phase assemblage--------------------------------

                                                      Moles in assemblage
Phase               SI  log IAP  log K(T, P)   Initial       Final       Delta

Calcite           0.00    -8.48     -8.48    1.000e-01   9.877e-02  -1.234e-03
Fluorite          0.00   -10.60    -10.60    1.000e-01   1.000e-01  -9.017e-07

-----------------------------Exchange composition------------------------------

X                1.065e+00 mol

	                               Equiv-    Equivalent      Log 
	Species             Moles      alents      Fraction     Gamma

	NaX               7.252e-01   7.252e-01   6.807e-01     0.000
	CaX2              9.161e-02   1.832e-01   1.720e-01     0.000
	KX                7.891e-02   7.891e-02   7.407e-02     0.000
	MgX2              3.125e-02   6.250e-02   5.867e-02     0.000
	SrX2              7.750e-03   1.550e-02   1.455e-02     0.000
	HX                5.058e-05   5.058e-05   4.748e-05     0.000

-----------------------------Solution composition------------------------------

	Elements           Molality       Moles

	C                 1.233e-01   1.234e-03
	Ca                9.154e-03   9.166e-05
	Cl                1.997e-01   2.000e-03
	F                 1.801e-04   1.804e-06
	K                 3.634e-03   3.639e-05
	Mg                6.961e-03   6.971e-05
	Na                2.131e-01   2.133e-03
	Sr                8.600e-04   8.611e-06

----------------------------Description of solution----------------------------

                                       pH  =   5.973      Charge balance
                                       pe  =  -1.179      Adjusted to redox equilibrium
       Specific Conductance (uS/cm, 25 oC) = 23742
                          Density (g/cm3)  =   1.00962
                        Activity of water  =   0.991
                           Ionic strength  =   2.581e-01
                       Mass of water (kg)  =   1.001e-02
                 Total alkalinity (eq/kg)  =   5.073e-02
                       Total CO2 (mol/kg)  =   1.233e-01
                      Temperature (deg C)  =  25.00
                  Electrical balance (eq)  =   5.484e-12
 Percent error, 100*(Cat-|An|)/(Cat+|An|)  =   0.00
                               Iterations  =  17
                                  Total H  = 1.112085e+00
                                  Total O  = 5.587653e-01

----------------------------Distribution of species----------------------------

                                               Log       Log       Log    mole V
   Species          Molality    Activity  Molality  Activity     Gamma   cm3/mol

   H+              1.349e-06   1.063e-06    -5.870    -5.973    -0.104      0.00
   OH-             1.361e-08   9.339e-09    -7.866    -8.030    -0.164     -3.22
   H2O             5.551e+01   9.907e-01     1.744    -0.004     0.000     18.07
C(-4)         8.022e-16
   CH4             8.022e-16   8.513e-16   -15.096   -15.070     0.026     32.22
C(4)          1.233e-01
   CO2             7.256e-02   7.700e-02    -1.139    -1.113     0.026     24.74
   HCO3-           4.368e-02   3.191e-02    -1.360    -1.496    -0.136     25.60
   NaHCO3          4.583e-03   4.864e-03    -2.339    -2.313     0.026     29.13
   CaHCO3+         1.311e-03   9.581e-04    -2.882    -3.019    -0.136     10.11
   MgHCO3+         9.797e-04   7.224e-04    -3.009    -3.141    -0.132      5.92
   SrHCO3+         1.442e-04   1.053e-04    -3.841    -3.977    -0.136     (0)  
   NaCO3-          5.418e-06   3.995e-06    -5.266    -5.398    -0.132     -1.12
   CaCO3           5.244e-06   5.565e-06    -5.280    -5.255     0.026    -14.60
   CO3-2           4.940e-06   1.408e-06    -5.306    -5.851    -0.545     -2.10
   MgCO3           2.449e-06   2.599e-06    -5.611    -5.585     0.026    -17.09
   SrCO3           1.827e-07   1.939e-07    -6.738    -6.712     0.026    -14.13
Ca            9.154e-03
   Ca+2            7.835e-03   2.353e-03    -2.106    -2.628    -0.522    -17.25
   CaHCO3+         1.311e-03   9.581e-04    -2.882    -3.019    -0.136     10.11
   CaCO3           5.244e-06   5.565e-06    -5.280    -5.255     0.026    -14.60
   CaF+            2.873e-06   2.118e-06    -5.542    -5.674    -0.132     -6.98
   CaOH+           4.935e-10   3.639e-10    -9.307    -9.439    -0.132     (0)  
Cl            1.997e-01
   Cl-             1.997e-01   1.383e-01    -0.700    -0.859    -0.160     18.49
F             1.801e-04
   F-              1.506e-04   1.034e-04    -3.822    -3.986    -0.164     -0.95
   MgF+            1.792e-05   1.321e-05    -4.747    -4.879    -0.132    -10.13
   NaF             8.542e-06   9.065e-06    -5.068    -5.043     0.026      7.26
   CaF+            2.873e-06   2.118e-06    -5.542    -5.674    -0.132     -6.98
   HF              1.553e-07   1.648e-07    -6.809    -6.783     0.026     12.50
   HF2-            8.864e-11   6.536e-11   -10.052   -10.185    -0.132     22.50
H(0)          3.440e-13
   H2              1.720e-13   1.825e-13   -12.765   -12.739     0.026     28.61
K             3.634e-03
   K+              3.634e-03   2.516e-03    -2.440    -2.599    -0.160      9.40
   KOH             7.660e-12   8.129e-12   -11.116   -11.090     0.026     (0)  
Mg            6.961e-03
   Mg+2            5.961e-03   1.934e-03    -2.225    -2.713    -0.489    -20.31
   MgHCO3+         9.797e-04   7.224e-04    -3.009    -3.141    -0.132      5.92
   MgF+            1.792e-05   1.321e-05    -4.747    -4.879    -0.132    -10.13
   MgCO3           2.449e-06   2.599e-06    -5.611    -5.585     0.026    -17.09
   MgOH+           8.876e-09   6.545e-09    -8.052    -8.184    -0.132     (0)  
Na            2.131e-01
   Na+             2.085e-01   1.524e-01    -0.681    -0.817    -0.136     -0.84
   NaHCO3          4.583e-03   4.864e-03    -2.339    -2.313     0.026     29.13
   NaF             8.542e-06   9.065e-06    -5.068    -5.043     0.026      7.26
   NaCO3-          5.418e-06   3.995e-06    -5.266    -5.398    -0.132     -1.12
   NaOH            1.341e-19   1.423e-19   -18.873   -18.847     0.026     (0)  
O(0)          0.000e+00
   O2              0.000e+00   0.000e+00   -66.937   -66.911     0.026     30.40
Sr            8.600e-04
   Sr+2            7.156e-04   2.158e-04    -3.145    -3.666    -0.521    -17.50
   SrHCO3+         1.442e-04   1.053e-04    -3.841    -3.977    -0.136     (0)  
   SrCO3           1.827e-07   1.939e-07    -6.738    -6.712     0.026    -14.13
   SrOH+           1.427e-11   1.031e-11   -10.845   -10.987    -0.141     (0)  

------------------------------Saturation indices-------------------------------

	Phase               SI   log IAP   log K(298 K,   1 atm)

	Aragonite        -0.14     -8.48   -8.34  CaCO3
	Calcite           0.00     -8.48   -8.48  CaCO3
	CH4(g)          -12.23    -15.07   -2.84  CH4
	CO2(g)            0.35     -1.11   -1.47  CO2
	Dolomite          0.05    -17.04  -17.09  CaMg(CO3)2
	Fluorite          0.00    -10.60  -10.60  CaF2
	H2(g)            -9.64    -12.74   -3.10  H2
	H2O(g)           -1.51     -0.00    1.50  H2O
	Halite           -3.26     -1.68    1.58  NaCl
	O2(g)           -64.02    -66.91   -2.89  O2
	Strontianite     -0.25     -9.52   -9.27  SrCO3


------------------
End of simulation.
------------------

------------------------------------
Reading input data for simulation 4.
------------------------------------

	MIX
		2	0.001
	USE pure_phases 2
	USE exchange 2
	END
-----------------------------------------
Beginning of batch-reaction calculations.
-----------------------------------------

Reaction step 1.

Using mix 1.	
Using exchange 2.	Exchange assemblage after simulation 1.
Using pure phase assemblage 2.	

Mixture 1.	

	  1.000e-03 Solution 2	                                                       

-------------------------------Phase assemblage--------------------------------

                                                      Moles in assemblage
Phase               SI  log IAP  log K(T, P)   Initial       Final       Delta

Calcite           0.00    -8.48     -8.48    1.000e-01   9.989e-02  -1.062e-04
Fluorite          0.00   -10.60    -10.60    1.000e-01   1.000e-01  -9.129e-08

-----------------------------Exchange composition------------------------------

X                1.065e+00 mol

	                               Equiv-    Equivalent      Log 
	Species             Moles      alents      Fraction     Gamma

	NaX               7.271e-01   7.271e-01   6.825e-01     0.000
	CaX2              9.057e-02   1.811e-01   1.700e-01     0.000
	KX                7.894e-02   7.894e-02   7.410e-02     0.000
	MgX2              3.131e-02   6.263e-02   5.879e-02     0.000
	SrX2              7.758e-03   1.552e-02   1.456e-02     0.000
	HX                4.554e-05   4.554e-05   4.275e-05     0.000

-----------------------------Solution composition------------------------------

	Elements           Molality       Moles

	C                 1.061e-01   1.062e-04
	Ca                8.703e-03   8.713e-06
	Cl                1.998e-01   2.000e-04
	F                 1.825e-04   1.827e-07
	K                 3.586e-03   3.590e-06
	Mg                6.715e-03   6.722e-06
	Na                2.105e-01   2.107e-04
	Sr                8.262e-04   8.271e-07

----------------------------Description of solution----------------------------

                                       pH  =   6.024      Charge balance
                                       pe  =  -1.222      Adjusted to redox equilibrium
       Specific Conductance (uS/cm, 25 oC) = 23505
                          Density (g/cm3)  =   1.00913
                        Activity of water  =   0.991
                           Ionic strength  =   2.542e-01
                       Mass of water (kg)  =   1.001e-03
                 Total alkalinity (eq/kg)  =   4.661e-02
                       Total CO2 (mol/kg)  =   1.061e-01
                      Temperature (deg C)  =  25.00
                  Electrical balance (eq)  =   5.340e-13
 Percent error, 100*(Cat-|An|)/(Cat+|An|)  =   0.00
                               Iterations  =  20
                                  Total H  = 1.111782e-01
                                  Total O  = 5.582491e-02

----------------------------Distribution of species----------------------------

                                               Log       Log       Log    mole V
   Species          Molality    Activity  Molality  Activity     Gamma   cm3/mol

   H+              1.199e-06   9.456e-07    -5.921    -6.024    -0.103      0.00
   OH-             1.528e-08   1.050e-08    -7.816    -7.979    -0.163     -3.23
   H2O             5.551e+01   9.910e-01     1.744    -0.004     0.000     18.07
C(-4)         5.667e-16
   CH4             5.667e-16   6.009e-16   -15.247   -15.221     0.025     32.22
C(4)          1.061e-01
   CO2             5.952e-02   6.311e-02    -1.225    -1.200     0.025     24.74
   HCO3-           4.021e-02   2.942e-02    -1.396    -1.531    -0.136     25.58
   NaHCO3          4.189e-03   4.441e-03    -2.378    -2.353     0.025     29.13
   CaHCO3+         1.165e-03   8.521e-04    -2.934    -3.069    -0.136     10.11
   MgHCO3+         8.826e-04   6.512e-04    -3.054    -3.186    -0.132      5.91
   SrHCO3+         1.297e-04   9.486e-05    -3.887    -4.023    -0.136     (0)  
   NaCO3-          5.559e-06   4.102e-06    -5.255    -5.387    -0.132     -1.14
   CaCO3           5.248e-06   5.565e-06    -5.280    -5.255     0.025    -14.60
   CO3-2           5.094e-06   1.459e-06    -5.293    -5.836    -0.543     -2.12
   MgCO3           2.484e-06   2.634e-06    -5.605    -5.579     0.025    -17.09
   SrCO3           1.852e-07   1.963e-07    -6.732    -6.707     0.025    -14.13
Ca            8.703e-03
   Ca+2            7.531e-03   2.270e-03    -2.123    -2.644    -0.521    -17.26
   CaHCO3+         1.165e-03   8.521e-04    -2.934    -3.069    -0.136     10.11
   CaCO3           5.248e-06   5.565e-06    -5.280    -5.255     0.025    -14.60
   CaF+            2.820e-06   2.081e-06    -5.550    -5.682    -0.132     -6.98
   CaOH+           5.352e-10   3.949e-10    -9.271    -9.404    -0.132     (0)  
Cl            1.998e-01
   Cl-             1.998e-01   1.385e-01    -0.699    -0.858    -0.159     18.49
F             1.825e-04
   F-              1.531e-04   1.052e-04    -3.815    -3.978    -0.163     -0.95
   MgF+            1.783e-05   1.315e-05    -4.749    -4.881    -0.132    -10.14
   NaF             8.621e-06   9.141e-06    -5.064    -5.039     0.025      7.26
   CaF+            2.820e-06   2.081e-06    -5.550    -5.682    -0.132     -6.98
   HF              1.407e-07   1.492e-07    -6.852    -6.826     0.025     12.50
   HF2-            8.165e-11   6.024e-11   -10.088   -10.220    -0.132     22.50
H(0)          3.317e-13
   H2              1.659e-13   1.759e-13   -12.780   -12.755     0.025     28.61
K             3.586e-03
   K+              3.586e-03   2.487e-03    -2.445    -2.604    -0.159      9.40
   KOH             8.523e-12   9.036e-12   -11.069   -11.044     0.025     (0)  
Mg            6.715e-03
   Mg+2            5.812e-03   1.892e-03    -2.236    -2.723    -0.487    -20.31
   MgHCO3+         8.826e-04   6.512e-04    -3.054    -3.186    -0.132      5.91
   MgF+            1.783e-05   1.315e-05    -4.749    -4.881    -0.132    -10.14
   MgCO3           2.484e-06   2.634e-06    -5.605    -5.579     0.025    -17.09
   MgOH+           9.757e-09   7.199e-09    -8.011    -8.143    -0.132     (0)  
Na            2.105e-01
   Na+             2.063e-01   1.510e-01    -0.685    -0.821    -0.136     -0.84
   NaHCO3          4.189e-03   4.441e-03    -2.378    -2.353     0.025     29.13
   NaF             8.621e-06   9.141e-06    -5.064    -5.039     0.025      7.26
   NaCO3-          5.559e-06   4.102e-06    -5.255    -5.387    -0.132     -1.14
   NaOH            1.496e-19   1.586e-19   -18.825   -18.800     0.025     (0)  
O(0)          0.000e+00
   O2              0.000e+00   0.000e+00   -66.904   -66.878     0.025     30.40
Sr            8.262e-04
   Sr+2            6.964e-04   2.108e-04    -3.157    -3.676    -0.519    -17.51
   SrHCO3+         1.297e-04   9.486e-05    -3.887    -4.023    -0.136     (0)  
   SrCO3           1.852e-07   1.963e-07    -6.732    -6.707     0.025    -14.13
   SrOH+           1.566e-11   1.133e-11   -10.805   -10.946    -0.141     (0)  

------------------------------Saturation indices-------------------------------

	Phase               SI   log IAP   log K(298 K,   1 atm)

	Aragonite        -0.14     -8.48   -8.34  CaCO3
	Calcite           0.00     -8.48   -8.48  CaCO3
	CH4(g)          -12.38    -15.22   -2.84  CH4
	CO2(g)            0.27     -1.20   -1.47  CO2
	Dolomite          0.05    -17.04  -17.09  CaMg(CO3)2
	Fluorite          0.00    -10.60  -10.60  CaF2
	H2(g)            -9.65    -12.75   -3.10  H2
	H2O(g)           -1.51     -0.00    1.50  H2O
	Halite           -3.26     -1.68    1.58  NaCl
	O2(g)           -63.99    -66.88   -2.89  O2
	Strontianite     -0.24     -9.51   -9.27  SrCO3


------------------
End of simulation.
------------------

------------------------------------
Reading input data for simulation 5.
------------------------------------

	MIX
		2	0.0001
	USE pure_phases 2
	USE exchange 2
	END
-----------------------------------------
Beginning of batch-reaction calculations.
-----------------------------------------

Reaction step 1.

Using mix 1.	
Using exchange 2.	Exchange assemblage after simulation 1.
Using pure phase assemblage 2.	

Mixture 1.	

	  1.000e-04 Solution 2	                                                       

-------------------------------Phase assemblage--------------------------------

                                                      Moles in assemblage
Phase               SI  log IAP  log K(T, P)   Initial       Final       Delta

Calcite           0.00    -8.48     -8.48    1.000e-01   1.000e-01  -4.482e-06
Fluorite          0.00   -10.60    -10.60    1.000e-01   1.000e-01  -9.389e-09

-----------------------------Exchange composition------------------------------

X                1.065e+00 mol

	                               Equiv-    Equivalent      Log 
	Species             Moles      alents      Fraction     Gamma

	NaX               7.273e-01   7.273e-01   6.827e-01     0.000
	CaX2              9.047e-02   1.809e-01   1.698e-01     0.000
	KX                7.894e-02   7.894e-02   7.410e-02     0.000
	MgX2              3.132e-02   6.264e-02   5.880e-02     0.000
	SrX2              7.759e-03   1.552e-02   1.457e-02     0.000
	HX                2.505e-05   2.505e-05   2.351e-05     0.000

-----------------------------Solution composition------------------------------

	Elements           Molality       Moles

	C                 4.481e-02   4.482e-06
	Ca                7.207e-03   7.210e-07
	Cl                1.999e-01   2.000e-05
	F                 1.887e-04   1.888e-08
	K                 3.363e-03   3.365e-07
	Mg                5.595e-03   5.597e-07
	Na                1.965e-01   1.966e-05
	Sr                6.777e-04   6.779e-08

----------------------------Description of solution----------------------------

                                       pH  =   6.308      Charge balance
                                       pe  =  -1.553      Adjusted to redox equilibrium
       Specific Conductance (uS/cm, 25 oC) = 22324
                          Density (g/cm3)  =   1.00719
                        Activity of water  =   0.992
                           Ionic strength  =   2.357e-01
                       Mass of water (kg)  =   1.000e-04
                 Total alkalinity (eq/kg)  =   2.675e-02
                       Total CO2 (mol/kg)  =   4.481e-02
                      Temperature (deg C)  =  25.00
                  Electrical balance (eq)  =   5.495e-14
 Percent error, 100*(Cat-|An|)/(Cat+|An|)  =   0.00
                               Iterations  =  23
                                  Total H  = 1.110753e-02
                                  Total O  = 5.564068e-03

----------------------------Distribution of species----------------------------

                                               Log       Log       Log    mole V
   Species          Molality    Activity  Molality  Activity     Gamma   cm3/mol

   H+              6.216e-07   4.919e-07    -6.206    -6.308    -0.102      0.00
   OH-             2.915e-08   2.022e-08    -7.535    -7.694    -0.159     -3.28
   H2O             5.551e+01   9.923e-01     1.744    -0.003     0.000     18.07
C(-4)         4.136e-16
   CH4             4.136e-16   4.367e-16   -15.383   -15.360     0.024     32.22
C(4)          4.481e-02
   HCO3-           2.326e-02   1.713e-02    -1.633    -1.766    -0.133     25.53
   CO2             1.808e-02   1.909e-02    -1.743    -1.719     0.024     24.74
   NaHCO3          2.317e-03   2.446e-03    -2.635    -2.612     0.024     29.13
   CaHCO3+         6.021e-04   4.433e-04    -3.220    -3.353    -0.133     10.09
   MgHCO3+         4.582e-04   3.392e-04    -3.339    -3.470    -0.131      5.90
   SrHCO3+         6.711e-05   4.940e-05    -4.173    -4.306    -0.133     (0)  
   NaCO3-          5.866e-06   4.342e-06    -5.232    -5.362    -0.131     -1.25
   CO3-2           5.561e-06   1.633e-06    -5.255    -5.787    -0.532     -2.20
   CaCO3           5.271e-06   5.565e-06    -5.278    -5.255     0.024    -14.60
   MgCO3           2.498e-06   2.637e-06    -5.602    -5.579     0.024    -17.09
   SrCO3           1.862e-07   1.966e-07    -6.730    -6.706     0.024    -14.13
Ca            7.207e-03
   Ca+2            6.597e-03   2.029e-03    -2.181    -2.693    -0.512    -17.29
   CaHCO3+         6.021e-04   4.433e-04    -3.220    -3.353    -0.133     10.09
   CaCO3           5.271e-06   5.565e-06    -5.278    -5.255     0.024    -14.60
   CaF+            2.657e-06   1.967e-06    -5.576    -5.706    -0.131     -7.00
   CaOH+           9.176e-10   6.792e-10    -9.037    -9.168    -0.131     (0)  
Cl            1.999e-01
   Cl-             1.999e-01   1.398e-01    -0.699    -0.854    -0.155     18.47
F             1.887e-04
   F-              1.605e-04   1.113e-04    -3.795    -3.953    -0.159     -0.97
   MgF+            1.682e-05   1.245e-05    -4.774    -4.905    -0.131    -10.15
   NaF             8.665e-06   9.148e-06    -5.062    -5.039     0.024      7.26
   CaF+            2.657e-06   1.967e-06    -5.576    -5.706    -0.131     -7.00
   HF              7.777e-08   8.211e-08    -7.109    -7.086     0.024     12.50
   HF2-            4.738e-11   3.507e-11   -10.324   -10.455    -0.131     22.48
H(0)          4.150e-13
   H2              2.075e-13   2.191e-13   -12.683   -12.659     0.024     28.61
K             3.363e-03
   K+              3.363e-03   2.352e-03    -2.473    -2.629    -0.155      9.38
   KOH             1.558e-11   1.645e-11   -10.807   -10.784     0.024     (0)  
Mg            5.595e-03
   Mg+2            5.117e-03   1.693e-03    -2.291    -2.771    -0.481    -20.34
   MgHCO3+         4.582e-04   3.392e-04    -3.339    -3.470    -0.131      5.90
   MgF+            1.682e-05   1.245e-05    -4.774    -4.905    -0.131    -10.15
   MgCO3           2.498e-06   2.637e-06    -5.602    -5.579     0.024    -17.09
   MgOH+           1.675e-08   1.240e-08    -7.776    -7.907    -0.131     (0)  
Na            1.965e-01
   Na+             1.942e-01   1.428e-01    -0.712    -0.845    -0.133     -0.85
   NaHCO3          2.317e-03   2.446e-03    -2.635    -2.612     0.024     29.13
   NaF             8.665e-06   9.148e-06    -5.062    -5.039     0.024      7.26
   NaCO3-          5.866e-06   4.342e-06    -5.232    -5.362    -0.131     -1.25
   NaOH            2.735e-19   2.888e-19   -18.563   -18.539     0.024     (0)  
O(0)          0.000e+00
   O2              0.000e+00   0.000e+00   -67.092   -67.068     0.024     30.40
Sr            6.777e-04
   Sr+2            6.104e-04   1.886e-04    -3.214    -3.725    -0.510    -17.54
   SrHCO3+         6.711e-05   4.940e-05    -4.173    -4.306    -0.133     (0)  
   SrCO3           1.862e-07   1.966e-07    -6.730    -6.706     0.024    -14.13
   SrOH+           2.679e-11   1.951e-11   -10.572   -10.710    -0.138     (0)  

------------------------------Saturation indices-------------------------------

	Phase               SI   log IAP   log K(298 K,   1 atm)

	Aragonite        -0.14     -8.48   -8.34  CaCO3
	Calcite           0.00     -8.48   -8.48  CaCO3
	CH4(g)          -12.52    -15.36   -2.84  CH4
	CO2(g)           -0.25     -1.72   -1.47  CO2
	Dolomite          0.05    -17.04  -17.09  CaMg(CO3)2
	Fluorite          0.00    -10.60  -10.60  CaF2
	H2(g)            -9.56    -12.66   -3.10  H2
	H2O(g)           -1.51     -0.00    1.50  H2O
	Halite           -3.28     -1.70    1.58  NaCl
	O2(g)           -64.18    -67.07   -2.89  O2
	Strontianite     -0.24     -9.51   -9.27  SrCO3


------------------
End of simulation.
------------------

------------------------------------
Reading input data for simulation 6.
------------------------------------

	MIX
		2	0.00001
	USE pure_phases 2
	USE exchange 2
	END
-----------------------------------------
Beginning of batch-reaction calculations.
-----------------------------------------

Reaction step 1.

Using mix 1.	
Using exchange 2.	Exchange assemblage after simulation 1.
Using pure phase assemblage 2.	

Mixture 1.	

	  1.000e-05 Solution 2	                                                       

-------------------------------Phase assemblage--------------------------------

                                                      Moles in assemblage
Phase               SI  log IAP  log K(T, P)   Initial       Final       Delta

Calcite           0.00    -8.48     -8.48    1.000e-01   1.000e-01  -1.932e-07
Fluorite         -0.00   -10.60    -10.60    1.000e-01   1.000e-01  -9.158e-10

-----------------------------Exchange composition------------------------------

X                1.065e+00 mol

	                               Equiv-    Equivalent      Log 
	Species             Moles      alents      Fraction     Gamma

	NaX               7.273e-01   7.273e-01   6.827e-01     0.000
	CaX2              9.047e-02   1.809e-01   1.698e-01     0.000
	KX                7.894e-02   7.894e-02   7.410e-02     0.000
	MgX2              3.132e-02   6.264e-02   5.880e-02     0.000
	SrX2              7.759e-03   1.552e-02   1.457e-02     0.000
	HX                1.309e-05   1.309e-05   1.229e-05     0.000

-----------------------------Solution composition------------------------------

	Elements           Molality       Moles

	C                 1.933e-02   1.933e-07
	Ca                6.344e-03   6.344e-08
	Cl                2.000e-01   2.000e-06
	F                 1.931e-04   1.932e-09
	K                 3.221e-03   3.221e-08
	Mg                4.941e-03   4.941e-08
	Na                1.876e-01   1.876e-06
	Sr                5.919e-04   5.919e-09

----------------------------Description of solution----------------------------

                                       pH  =   6.606      Charge balance
                                       pe  =  -2.207      Adjusted to redox equilibrium
       Specific Conductance (uS/cm, 25 oC) = 21572
                          Density (g/cm3)  =   1.00621
                        Activity of water  =   0.993
                           Ionic strength  =   2.240e-01
                       Mass of water (kg)  =   1.000e-05
                 Total alkalinity (eq/kg)  =   1.440e-02
                       Total CO2 (mol/kg)  =   1.933e-02
                      Temperature (deg C)  =  25.00
                  Electrical balance (eq)  =   5.430e-15
 Percent error, 100*(Cat-|An|)/(Cat+|An|)  =   0.00
                               Iterations  =  29
                                  Total H  = 1.110367e-03
                                  Total O  = 5.556420e-04

----------------------------Distribution of species----------------------------

                                               Log       Log       Log    mole V
   Species          Molality    Activity  Molality  Activity     Gamma   cm3/mol

   H+              3.121e-07   2.475e-07    -6.506    -6.606    -0.101      0.00
   OH-             5.761e-08   4.020e-08    -7.239    -7.396    -0.156     -3.31
   H2O             5.551e+01   9.929e-01     1.744    -0.003     0.000     18.07
C(-4)         7.871e-14
   CH4             7.871e-14   8.288e-14   -13.104   -13.082     0.022     32.22
C(4)          1.933e-02
   HCO3-           1.258e-02   9.298e-03    -1.900    -2.032    -0.131     25.49
   CO2             4.950e-03   5.212e-03    -2.305    -2.283     0.022     24.74
   NaHCO3          1.214e-03   1.279e-03    -2.916    -2.893     0.022     29.13
   CaHCO3+         3.018e-04   2.231e-04    -3.520    -3.652    -0.131     10.08
   MgHCO3+         2.300e-04   1.707e-04    -3.638    -3.768    -0.130      5.89
   SrHCO3+         3.363e-05   2.486e-05    -4.473    -4.604    -0.131     (0)  
   NaCO3-          6.078e-06   4.510e-06    -5.216    -5.346    -0.130     -1.32
   CO3-2           5.899e-06   1.761e-06    -5.229    -5.754    -0.525     -2.25
   CaCO3           5.285e-06   5.565e-06    -5.277    -5.255     0.022    -14.60
   MgCO3           2.505e-06   2.637e-06    -5.601    -5.579     0.022    -17.09
   SrCO3           1.867e-07   1.966e-07    -6.729    -6.706     0.022    -14.13
Ca            6.344e-03
   Ca+2            6.034e-03   1.881e-03    -2.219    -2.726    -0.506    -17.30
   CaHCO3+         3.018e-04   2.231e-04    -3.520    -3.652    -0.131     10.08
   CaCO3           5.285e-06   5.565e-06    -5.277    -5.255     0.022    -14.60
   CaF+            2.552e-06   1.894e-06    -5.593    -5.723    -0.130     -7.01
   CaOH+           1.687e-09   1.252e-09    -8.773    -8.902    -0.130     (0)  
Cl            2.000e-01
   Cl-             2.000e-01   1.406e-01    -0.699    -0.852    -0.153     18.46
F             1.931e-04
   F-              1.657e-04   1.156e-04    -3.781    -3.937    -0.156     -0.98
   MgF+            1.615e-05   1.199e-05    -4.792    -4.921    -0.130    -10.16
   NaF             8.689e-06   9.149e-06    -5.061    -5.039     0.022      7.26
   CaF+            2.552e-06   1.894e-06    -5.593    -5.723    -0.130     -7.01
   HF              4.076e-08   4.292e-08    -7.390    -7.367     0.022     12.50
   HF2-            2.566e-11   1.904e-11   -10.591   -10.720    -0.130     22.47
H(0)          2.137e-12
   H2              1.069e-12   1.125e-12   -11.971   -11.949     0.022     28.61
K             3.221e-03
   K+              3.221e-03   2.264e-03    -2.492    -2.645    -0.153      9.37
   KOH             2.991e-11   3.149e-11   -10.524   -10.502     0.022     (0)  
Mg            4.941e-03
   Mg+2            4.692e-03   1.569e-03    -2.329    -2.804    -0.476    -20.36
   MgHCO3+         2.300e-04   1.707e-04    -3.638    -3.768    -0.130      5.89
   MgF+            1.615e-05   1.199e-05    -4.792    -4.921    -0.130    -10.16
   MgCO3           2.505e-06   2.637e-06    -5.601    -5.579     0.022    -17.09
   MgOH+           3.079e-08   2.285e-08    -7.512    -7.641    -0.130     (0)  
Na            1.876e-01
   Na+             1.864e-01   1.375e-01    -0.730    -0.862    -0.132     -0.86
   NaHCO3          1.214e-03   1.279e-03    -2.916    -2.893     0.022     29.13
   NaF             8.689e-06   9.149e-06    -5.061    -5.039     0.022      7.26
   NaCO3-          6.078e-06   4.510e-06    -5.216    -5.346    -0.130     -1.32
   NaOH            5.250e-19   5.528e-19   -18.280   -18.257     0.022     (0)  
O(0)          0.000e+00
   O2              0.000e+00   0.000e+00   -68.511   -68.489     0.022     30.40
Sr            5.919e-04
   Sr+2            5.580e-04   1.748e-04    -3.253    -3.757    -0.504    -17.56
   SrHCO3+         3.363e-05   2.486e-05    -4.473    -4.604    -0.131     (0)  
   SrCO3           1.867e-07   1.966e-07    -6.729    -6.706     0.022    -14.13
   SrOH+           4.916e-11   3.596e-11   -10.308   -10.444    -0.136     (0)  

------------------------------Saturation indices-------------------------------

	Phase               SI   log IAP   log K(298 K,   1 atm)

	Aragonite        -0.14     -8.48   -8.34  CaCO3
	Calcite           0.00     -8.48   -8.48  CaCO3
	CH4(g)          -10.24    -13.08   -2.84  CH4
	CO2(g)           -0.82     -2.28   -1.47  CO2
	Dolomite          0.05    -17.04  -17.09  CaMg(CO3)2
	Fluorite         -0.00    -10.60  -10.60  CaF2
	H2(g)            -8.85    -11.95   -3.10  H2
	H2O(g)           -1.51     -0.00    1.50  H2O
	Halite           -3.30     -1.71    1.58  NaCl
	O2(g)           -65.60    -68.49   -2.89  O2
	Strontianite     -0.24     -9.51   -9.27  SrCO3


------------------
End of simulation.
------------------

------------------------------------
Reading input data for simulation 7.
------------------------------------

	MIX
		2	0.000001
	USE pure_phases 2
	USE exchange 2
	END
-----------------------------------------
Beginning of batch-reaction calculations.
-----------------------------------------

Reaction step 1.

Using mix 1.	
Using exchange 2.	Exchange assemblage after simulation 1.
Using pure phase assemblage 2.	

Mixture 1.	

	  1.000e-06 Solution 2	                                                       

-------------------------------Phase assemblage--------------------------------

                                                      Moles in assemblage
Phase               SI  log IAP  log K(T, P)   Initial       Final       Delta

Calcite          -0.00    -8.48     -8.48    1.000e-01   1.000e-01  -1.643e-08
Fluorite         -0.00   -10.60    -10.60    1.000e-01   1.000e-01  -4.690e-11

-----------------------------Exchange composition------------------------------

X                1.065e+00 mol

	                               Equiv-    Equivalent      Log 
	Species             Moles      alents      Fraction     Gamma

	NaX               7.273e-01   7.273e-01   6.827e-01    -0.000
	CaX2              9.047e-02   1.809e-01   1.698e-01    -0.000
	KX                7.894e-02   7.894e-02   7.410e-02    -0.000
	MgX2              3.132e-02   6.264e-02   5.880e-02    -0.000
	SrX2              7.759e-03   1.552e-02   1.457e-02    -0.000
	HX                1.151e-05   1.151e-05   1.081e-05    -0.000

-----------------------------Solution composition------------------------------

	Elements           Molality       Moles

	C                 1.653e-02   1.653e-08
	Ca                6.230e-03   6.230e-09
	Cl                2.000e-01   2.000e-07
	F                 1.938e-04   1.938e-10
	K                 3.201e-03   3.201e-09
	Mg                4.854e-03   4.855e-09
	Na                1.864e-01   1.864e-07
	Sr                5.806e-04   5.806e-10

----------------------------Description of solution----------------------------

                                       pH  =   6.664      Charge balance
                                       pe  =  -2.585      Adjusted to redox equilibrium
       Specific Conductance (uS/cm, 25 oC) = 21469
                          Density (g/cm3)  =   1.00609
                        Activity of water  =   0.993
                           Ionic strength  =   2.224e-01
                       Mass of water (kg)  =   1.000e-06
                 Total alkalinity (eq/kg)  =   1.272e-02
                       Total CO2 (mol/kg)  =   1.653e-02
                      Temperature (deg C)  =  25.00
                  Electrical balance (eq)  =   5.497e-16
 Percent error, 100*(Cat-|An|)/(Cat+|An|)  =   0.00
                               Iterations  =  66
                                  Total H  = 1.110328e-04
                                  Total O  = 5.555580e-05

----------------------------Distribution of species----------------------------

                                               Log       Log       Log    mole V
   Species          Molality    Activity  Molality  Activity     Gamma   cm3/mol

   H+              2.729e-07   2.165e-07    -6.564    -6.664    -0.100      0.00
   OH-             6.581e-08   4.595e-08    -7.182    -7.338    -0.156     -3.31
   H2O             5.551e+01   9.929e-01     1.744    -0.003     0.000     18.07
C(-4)         2.224e-11
   CH4             2.224e-11   2.340e-11   -10.653   -10.631     0.022     32.22
C(4)          1.653e-02
   HCO3-           1.112e-02   8.221e-03    -1.954    -2.085    -0.131     25.48
   CO2             3.830e-03   4.031e-03    -2.417    -2.395     0.022     24.74
   NaHCO3          1.068e-03   1.124e-03    -2.971    -2.949     0.022     29.13
   CaHCO3+         2.638e-04   1.952e-04    -3.579    -3.710    -0.131     10.08
   MgHCO3+         2.012e-04   1.493e-04    -3.696    -3.826    -0.129      5.88
   SrHCO3+         2.941e-05   2.175e-05    -4.532    -4.663    -0.131     (0)  
   NaCO3-          6.109e-06   4.535e-06    -5.214    -5.343    -0.129     -1.33
   CO3-2           5.949e-06   1.781e-06    -5.226    -5.749    -0.524     -2.26
   CaCO3           5.287e-06   5.565e-06    -5.277    -5.255     0.022    -14.60
   MgCO3           2.506e-06   2.637e-06    -5.601    -5.579     0.022    -17.09
   SrCO3           1.868e-07   1.966e-07    -6.729    -6.706     0.022    -14.13
Ca            6.230e-03
   Ca+2            5.958e-03   1.860e-03    -2.225    -2.730    -0.505    -17.31
   CaHCO3+         2.638e-04   1.952e-04    -3.579    -3.710    -0.131     10.08
   CaCO3           5.287e-06   5.565e-06    -5.277    -5.255     0.022    -14.60
   CaF+            2.537e-06   1.884e-06    -5.596    -5.725    -0.129     -7.01
   CaOH+           1.907e-09   1.416e-09    -8.720    -8.849    -0.129     (0)  
Cl            2.000e-01
   Cl-             2.000e-01   1.407e-01    -0.699    -0.852    -0.153     18.46
F             1.938e-04
   F-              1.665e-04   1.162e-04    -3.779    -3.935    -0.156     -0.98
   MgF+            1.606e-05   1.192e-05    -4.794    -4.924    -0.129    -10.17
   NaF             8.692e-06   9.149e-06    -5.061    -5.039     0.022      7.26
   CaF+            2.537e-06   1.884e-06    -5.596    -5.725    -0.129     -7.01
   HF              3.586e-08   3.775e-08    -7.445    -7.423     0.022     12.50
   HF2-            2.268e-11   1.684e-11   -10.644   -10.774    -0.129     22.47
H(0)          9.346e-12
   H2              4.673e-12   4.919e-12   -11.330   -11.308     0.022     28.61
K             3.201e-03
   K+              3.201e-03   2.252e-03    -2.495    -2.647    -0.153      9.36
   KOH             3.402e-11   3.581e-11   -10.468   -10.446     0.022     (0)  
Mg            4.854e-03
   Mg+2            4.634e-03   1.552e-03    -2.334    -2.809    -0.475    -20.36
   MgHCO3+         2.012e-04   1.493e-04    -3.696    -3.826    -0.129      5.88
   MgF+            1.606e-05   1.192e-05    -4.794    -4.924    -0.129    -10.17
   MgCO3           2.506e-06   2.637e-06    -5.601    -5.579     0.022    -17.09
   MgOH+           3.481e-08   2.584e-08    -7.458    -7.588    -0.129     (0)  
Na            1.864e-01
   Na+             1.853e-01   1.368e-01    -0.732    -0.864    -0.132     -0.86
   NaHCO3          1.068e-03   1.124e-03    -2.971    -2.949     0.022     29.13
   NaF             8.692e-06   9.149e-06    -5.061    -5.039     0.022      7.26
   NaCO3-          6.109e-06   4.535e-06    -5.214    -5.343    -0.129     -1.33
   NaOH            5.972e-19   6.285e-19   -18.224   -18.202     0.022     (0)  
O(0)          0.000e+00
   O2              0.000e+00   0.000e+00   -69.792   -69.770     0.022     30.40
Sr            5.806e-04
   Sr+2            5.510e-04   1.729e-04    -3.259    -3.762    -0.503    -17.56
   SrHCO3+         2.941e-05   2.175e-05    -4.532    -4.663    -0.131     (0)  
   SrCO3           1.868e-07   1.966e-07    -6.729    -6.706     0.022    -14.13
   SrOH+           5.557e-11   4.067e-11   -10.255   -10.391    -0.136     (0)  

------------------------------Saturation indices-------------------------------

	Phase               SI   log IAP   log K(298 K,   1 atm)

	Aragonite        -0.14     -8.48   -8.34  CaCO3
	Calcite          -0.00     -8.48   -8.48  CaCO3
	CH4(g)           -7.79    -10.63   -2.84  CH4
	CO2(g)           -0.93     -2.39   -1.47  CO2
	Dolomite          0.05    -17.04  -17.09  CaMg(CO3)2
	Fluorite         -0.00    -10.60  -10.60  CaF2
	H2(g)            -8.21    -11.31   -3.10  H2
	H2O(g)           -1.51     -0.00    1.50  H2O
	Halite           -3.30     -1.72    1.58  NaCl
	O2(g)           -66.88    -69.77   -2.89  O2
	Strontianite     -0.24     -9.51   -9.27  SrCO3


------------------
End of simulation.
------------------

------------------------------------
Reading input data for simulation 8.
------------------------------------

	MIX
		2	0.0000001
	USE pure_phases 2
	USE exchange 2
	END
-----------------------------------------
Beginning of batch-reaction calculations.
-----------------------------------------

Reaction step 1.

Using mix 1.	
Using exchange 2.	Exchange assemblage after simulation 1.
Using pure phase assemblage 2.	

Mixture 1.	

	  1.000e-07 Solution 2	                                                       

-------------------------------Phase assemblage--------------------------------

                                                      Moles in assemblage
Phase               SI  log IAP  log K(T, P)   Initial       Final       Delta

Calcite          -0.00    -8.48     -8.48    1.000e-01   1.000e-01  -1.525e-09
Fluorite         -0.00   -10.60    -10.60    1.000e-01   1.000e-01   4.031e-11

-----------------------------Exchange composition------------------------------

X                1.065e+00 mol

	                               Equiv-    Equivalent      Log 
	Species             Moles      alents      Fraction     Gamma

	NaX               7.273e-01   7.273e-01   6.827e-01     0.000
	CaX2              9.047e-02   1.809e-01   1.698e-01     0.000
	KX                7.894e-02   7.894e-02   7.410e-02     0.000
	MgX2              3.132e-02   6.264e-02   5.880e-02     0.000
	SrX2              7.759e-03   1.552e-02   1.457e-02     0.000
	HX                1.135e-05   1.135e-05   1.066e-05     0.000

-----------------------------Solution composition------------------------------

	Elements           Molality       Moles

	C                 1.625e-02   1.625e-09
	Ca                6.218e-03   6.219e-10
	Cl                2.000e-01   2.000e-08
	F                 1.939e-04   1.939e-11
	K                 3.199e-03   3.199e-10
	Mg                4.845e-03   4.846e-10
	Na                1.862e-01   1.863e-08
	Sr                5.794e-04   5.795e-11

----------------------------Description of solution----------------------------

                                       pH  =   6.671      Charge balance
                                       pe  =  12.706      Adjusted to redox equilibrium
       Specific Conductance (uS/cm, 25 oC) = 21458
                          Density (g/cm3)  =   1.00608
                        Activity of water  =   0.993
                           Ionic strength  =   2.223e-01
                       Mass of water (kg)  =   1.000e-07
                 Total alkalinity (eq/kg)  =   1.255e-02
                       Total CO2 (mol/kg)  =   1.625e-02
                      Temperature (deg C)  =  25.00
                  Electrical balance (eq)  =   5.497e-17
 Percent error, 100*(Cat-|An|)/(Cat+|An|)  =   0.00
                               Iterations  =  65
                                  Total H  = 1.110324e-05
                                  Total O  = 5.555497e-06

----------------------------Distribution of species----------------------------

                                               Log       Log       Log    mole V
   Species          Molality    Activity  Molality  Activity     Gamma   cm3/mol

   H+              2.689e-07   2.134e-07    -6.570    -6.671    -0.100      0.00
   OH-             6.678e-08   4.663e-08    -7.175    -7.331    -0.156     -3.31
   H2O             5.551e+01   9.929e-01     1.744    -0.003     0.000     18.07
C(-4)         0.000e+00
   CH4             0.000e+00   0.000e+00  -133.047  -133.024     0.022     32.22
C(4)          1.625e-02
   HCO3-           1.096e-02   8.110e-03    -1.960    -2.091    -0.131     25.48
   CO2             3.723e-03   3.919e-03    -2.429    -2.407     0.022     24.74
   NaHCO3          1.053e-03   1.109e-03    -2.977    -2.955     0.022     29.13
   CaHCO3+         2.600e-04   1.923e-04    -3.585    -3.716    -0.131     10.08
   MgHCO3+         1.982e-04   1.471e-04    -3.703    -3.832    -0.129      5.88
   SrHCO3+         2.897e-05   2.143e-05    -4.538    -4.669    -0.131     (0)  
   NaCO3-          6.112e-06   4.537e-06    -5.214    -5.343    -0.129     -1.33
   CO3-2           5.954e-06   1.782e-06    -5.225    -5.749    -0.524     -2.26
   CaCO3           5.287e-06   5.565e-06    -5.277    -5.255     0.022    -14.60
   MgCO3           2.506e-06   2.637e-06    -5.601    -5.579     0.022    -17.09
   SrCO3           1.868e-07   1.966e-07    -6.729    -6.706     0.022    -14.13
Ca            6.218e-03
   Ca+2            5.950e-03   1.858e-03    -2.225    -2.731    -0.505    -17.31
   CaHCO3+         2.600e-04   1.923e-04    -3.585    -3.716    -0.131     10.08
   CaCO3           5.287e-06   5.565e-06    -5.277    -5.255     0.022    -14.60
   CaF+            2.536e-06   1.883e-06    -5.596    -5.725    -0.129     -7.01
   CaOH+           1.933e-09   1.435e-09    -8.714    -8.843    -0.129     (0)  
Cl            2.000e-01
   Cl-             2.000e-01   1.407e-01    -0.699    -0.852    -0.153     18.46
F             1.939e-04
   F-              1.665e-04   1.163e-04    -3.778    -3.934    -0.156     -0.98
   MgF+            1.605e-05   1.191e-05    -4.795    -4.924    -0.129    -10.17
   NaF             8.692e-06   9.149e-06    -5.061    -5.039     0.022      7.26
   CaF+            2.536e-06   1.883e-06    -5.596    -5.725    -0.129     -7.01
   HF              3.536e-08   3.722e-08    -7.451    -7.429     0.022     12.50
   HF2-            2.237e-11   1.661e-11   -10.650   -10.780    -0.129     22.47
H(0)          0.000e+00
   H2              0.000e+00   0.000e+00   -41.926   -41.904     0.022     28.61
K             3.199e-03
   K+              3.199e-03   2.251e-03    -2.495    -2.648    -0.153      9.36
   KOH             3.451e-11   3.632e-11   -10.462   -10.440     0.022     (0)  
Mg            4.845e-03
   Mg+2            4.629e-03   1.551e-03    -2.335    -2.810    -0.475    -20.36
   MgHCO3+         1.982e-04   1.471e-04    -3.703    -3.832    -0.129      5.88
   MgF+            1.605e-05   1.191e-05    -4.795    -4.924    -0.129    -10.17
   MgCO3           2.506e-06   2.637e-06    -5.601    -5.579     0.022    -17.09
   MgOH+           3.529e-08   2.620e-08    -7.452    -7.582    -0.129     (0)  
Na            1.862e-01
   Na+             1.852e-01   1.367e-01    -0.732    -0.864    -0.132     -0.86
   NaHCO3          1.053e-03   1.109e-03    -2.977    -2.955     0.022     29.13
   NaF             8.692e-06   9.149e-06    -5.061    -5.039     0.022      7.26
   NaCO3-          6.112e-06   4.537e-06    -5.214    -5.343    -0.129     -1.33
   NaOH            6.057e-19   6.375e-19   -18.218   -18.196     0.022     (0)  
O(0)          5.008e-09
   O2              2.504e-09   2.636e-09    -8.601    -8.579     0.022     30.40
Sr            5.794e-04
   Sr+2            5.503e-04   1.728e-04    -3.259    -3.763    -0.503    -17.56
   SrHCO3+         2.897e-05   2.143e-05    -4.538    -4.669    -0.131     (0)  
   SrCO3           1.868e-07   1.966e-07    -6.729    -6.706     0.022    -14.13
   SrOH+           5.632e-11   4.123e-11   -10.249   -10.385    -0.136     (0)  

------------------------------Saturation indices-------------------------------

	Phase               SI   log IAP   log K(298 K,   1 atm)

	Aragonite        -0.14     -8.48   -8.34  CaCO3
	Calcite          -0.00     -8.48   -8.48  CaCO3
	CH4(g)         -130.18   -133.02   -2.84  CH4
	CO2(g)           -0.94     -2.41   -1.47  CO2
	Dolomite          0.05    -17.04  -17.09  CaMg(CO3)2
	Fluorite         -0.00    -10.60  -10.60  CaF2
	H2(g)           -38.80    -41.90   -3.10  H2
	H2O(g)           -1.51     -0.00    1.50  H2O
	Halite           -3.30     -1.72    1.58  NaCl
	O2(g)            -5.69     -8.58   -2.89  O2
	Strontianite     -0.24     -9.51   -9.27  SrCO3


------------------
End of simulation.
------------------

------------------------------------
Reading input data for simulation 9.
------------------------------------

	MIX
		2	0.00000001
	USE pure_phases 2
	USE exchange 2
	END
-----------------------------------------
Beginning of batch-reaction calculations.
-----------------------------------------

Reaction step 1.

WARNING: Maximum iterations exceeded, 100

WARNING: Numerical method failed with this set of convergence parameters.

WARNING: Trying smaller step size, pe step size 10, 5 ... 

Using mix 1.	
Using exchange 2.	Exchange assemblage after simulation 1.
Using pure phase assemblage 2.	

Mixture 1.	

	  1.000e-08 Solution 2	                                                       

-------------------------------Phase assemblage--------------------------------

                                                      Moles in assemblage
Phase               SI  log IAP  log K(T, P)   Initial       Final       Delta

Calcite           0.00    -8.48     -8.48    1.000e-01   1.000e-01  -6.222e-11
Fluorite         -0.00   -10.60    -10.60    1.000e-01   1.000e-01   4.903e-11

-----------------------------Exchange composition------------------------------

X                1.065e+00 mol

	                               Equiv-    Equivalent      Log 
	Species             Moles      alents      Fraction     Gamma

	NaX               7.273e-01   7.273e-01   6.827e-01     0.000
	CaX2              9.047e-02   1.809e-01   1.698e-01     0.000
	KX                7.894e-02   7.894e-02   7.410e-02     0.000
	MgX2              3.132e-02   6.264e-02   5.880e-02     0.000
	SrX2              7.759e-03   1.552e-02   1.457e-02     0.000
	HX                1.134e-05   1.134e-05   1.064e-05     0.000

-----------------------------Solution composition------------------------------

	Elements           Molality       Moles

	C                 1.622e-02   1.622e-10
	Ca                6.217e-03   6.217e-11
	Cl                2.000e-01   2.000e-09
	F                 1.939e-04   1.939e-12
	K                 3.199e-03   3.199e-11
	Mg                4.844e-03   4.845e-11
	Na                1.862e-01   1.862e-09
	Sr                5.793e-04   5.794e-12

----------------------------Description of solution----------------------------

                                       pH  =   6.671      Charge balance
                                       pe  =  -1.037      Adjusted to redox equilibrium
       Specific Conductance (uS/cm, 25 oC) = 21457
                          Density (g/cm3)  =   1.00608
                        Activity of water  =   0.993
                           Ionic strength  =   2.223e-01
                       Mass of water (kg)  =   1.000e-08
                 Total alkalinity (eq/kg)  =   1.253e-02
                       Total CO2 (mol/kg)  =   1.622e-02
                      Temperature (deg C)  =  25.00
                  Electrical balance (eq)  =   5.497e-18
 Percent error, 100*(Cat-|An|)/(Cat+|An|)  =   0.00
                               Iterations  = 102
                                  Total H  = 1.110323e-06
                                  Total O  = 5.555488e-07

----------------------------Distribution of species----------------------------

                                               Log       Log       Log    mole V
   Species          Molality    Activity  Molality  Activity     Gamma   cm3/mol

   H+              2.685e-07   2.131e-07    -6.571    -6.671    -0.100      0.00
   OH-             6.688e-08   4.670e-08    -7.175    -7.331    -0.156     -3.31
   H2O             5.551e+01   9.929e-01     1.744    -0.003     0.000     18.07
C(-4)         7.822e-24
   CH4             7.822e-24   8.232e-24   -23.107   -23.084     0.022     32.22
C(4)          1.622e-02
   HCO3-           1.095e-02   8.099e-03    -1.961    -2.092    -0.131     25.48
   CO2             3.713e-03   3.908e-03    -2.430    -2.408     0.022     24.74
   NaHCO3          1.052e-03   1.107e-03    -2.978    -2.956     0.022     29.13
   CaHCO3+         2.596e-04   1.920e-04    -3.586    -3.717    -0.131     10.08
   MgHCO3+         1.979e-04   1.469e-04    -3.703    -3.833    -0.129      5.88
   SrHCO3+         2.893e-05   2.140e-05    -4.539    -4.670    -0.131     (0)  
   NaCO3-          6.113e-06   4.538e-06    -5.214    -5.343    -0.129     -1.33
   CO3-2           5.954e-06   1.783e-06    -5.225    -5.749    -0.524     -2.26
   CaCO3           5.287e-06   5.565e-06    -5.277    -5.255     0.022    -14.60
   MgCO3           2.506e-06   2.637e-06    -5.601    -5.579     0.022    -17.09
   SrCO3           1.868e-07   1.966e-07    -6.729    -6.706     0.022    -14.13
Ca            6.217e-03
   Ca+2            5.950e-03   1.858e-03    -2.226    -2.731    -0.505    -17.31
   CaHCO3+         2.596e-04   1.920e-04    -3.586    -3.717    -0.131     10.08
   CaCO3           5.287e-06   5.565e-06    -5.277    -5.255     0.022    -14.60
   CaF+            2.536e-06   1.882e-06    -5.596    -5.725    -0.129     -7.01
   CaOH+           1.936e-09   1.437e-09    -8.713    -8.843    -0.129     (0)  
Cl            2.000e-01
   Cl-             2.000e-01   1.407e-01    -0.699    -0.852    -0.153     18.46
F             1.939e-04
   F-              1.665e-04   1.163e-04    -3.778    -3.934    -0.156     -0.98
   MgF+            1.605e-05   1.191e-05    -4.795    -4.924    -0.129    -10.17
   NaF             8.692e-06   9.149e-06    -5.061    -5.039     0.022      7.26
   CaF+            2.536e-06   1.882e-06    -5.596    -5.725    -0.129     -7.01
   HF              3.531e-08   3.717e-08    -7.452    -7.430     0.022     12.50
   HF2-            2.234e-11   1.659e-11   -10.651   -10.780    -0.129     22.47
H(0)          7.254e-15
   H2              3.627e-15   3.818e-15   -14.440   -14.418     0.022     28.61
K             3.199e-03
   K+              3.199e-03   2.251e-03    -2.495    -2.648    -0.153      9.36
   KOH             3.456e-11   3.637e-11   -10.461   -10.439     0.022     (0)  
Mg            4.844e-03
   Mg+2            4.628e-03   1.550e-03    -2.335    -2.810    -0.475    -20.36
   MgHCO3+         1.979e-04   1.469e-04    -3.703    -3.833    -0.129      5.88
   MgF+            1.605e-05   1.191e-05    -4.795    -4.924    -0.129    -10.17
   MgCO3           2.506e-06   2.637e-06    -5.601    -5.579     0.022    -17.09
   MgOH+           3.534e-08   2.623e-08    -7.452    -7.581    -0.129     (0)  
Na            1.862e-01
   Na+             1.852e-01   1.367e-01    -0.732    -0.864    -0.132     -0.86
   NaHCO3          1.052e-03   1.107e-03    -2.978    -2.956     0.022     29.13
   NaF             8.692e-06   9.149e-06    -5.061    -5.039     0.022      7.26
   NaCO3-          6.113e-06   4.538e-06    -5.214    -5.343    -0.129     -1.33
   NaOH            6.066e-19   6.384e-19   -18.217   -18.195     0.022     (0)  
O(0)          0.000e+00
   O2              0.000e+00   0.000e+00   -63.572   -63.550     0.022     30.40
Sr            5.793e-04
   Sr+2            5.502e-04   1.727e-04    -3.259    -3.763    -0.503    -17.56
   SrHCO3+         2.893e-05   2.140e-05    -4.539    -4.670    -0.131     (0)  
   SrCO3           1.868e-07   1.966e-07    -6.729    -6.706     0.022    -14.13
   SrOH+           5.640e-11   4.128e-11   -10.249   -10.384    -0.136     (0)  

------------------------------Saturation indices-------------------------------

	Phase               SI   log IAP   log K(298 K,   1 atm)

	Aragonite        -0.14     -8.48   -8.34  CaCO3
	Calcite           0.00     -8.48   -8.48  CaCO3
	CH4(g)          -20.24    -23.08   -2.84  CH4
	CO2(g)           -0.94     -2.41   -1.47  CO2
	Dolomite          0.05    -17.04  -17.09  CaMg(CO3)2
	Fluorite         -0.00    -10.60  -10.60  CaF2
	H2(g)           -11.32    -14.42   -3.10  H2
	H2O(g)           -1.51     -0.00    1.50  H2O
	Halite           -3.30     -1.72    1.58  NaCl
	O2(g)           -60.66    -63.55   -2.89  O2
	Strontianite     -0.24     -9.51   -9.27  SrCO3


------------------
End of simulation.
------------------

-------------------------------------
Reading input data for simulation 10.
-------------------------------------

-----------
End of run.
-----------

