WARNING: Database file from DATABASE keyword is used; command line argument ignored.
   Input file: KCl-SO4
  Output file: KCl-SO4.out
Database file: ../database/pitzer.dat

------------------
Reading data base.
------------------

	SOLUTION_MASTER_SPECIES
	SOLUTION_SPECIES
	PHASES
	PITZER
	EXCHANGE_MASTER_SPECIES
	EXCHANGE_SPECIES
	SURFACE_MASTER_SPECIES
	SURFACE_SPECIES
	END
------------------------------------
Reading input data for simulation 1.
------------------------------------

	DATABASE ../database/pitzer.dat
	PRINT
	 warnings 0
	 echo_input false
	SOLUTION 1
	 pH 7 charge
	 K 4e3
	 S 2e3
	REACTION 1
	 KCl 1 K2SO4 -1
	 1e-4 11*1 0.99989
	INCREMENTAL_REACTIONS true
	REACTION_TEMPERATURE 
	15
	EQUILIBRIUM_PHASES
	Arcanite
	Sylvite 0 0
	USER_GRAPH 1
	-headings x 15.oC(Arcanite) SI("Sylvite")
	-chart_title "K2SO4 -- saturation curves"
	-axis_titles "K2SO4 / (mol/kgw)" "KCl / (mol/kgw)" "Saturation Index"
	-axis_scale sy_axis -2 0.01
	-connect_simulations false
	10 graph_x tot("S")
	20 graph_y tot("Cl")
	30 graph_sy SI("Sylvite")
	-end
	END
-------------------------------------------
Beginning of initial solution calculations.
-------------------------------------------

Initial solution 1.	

-----------------------------Solution composition------------------------------

	Elements           Molality       Moles

	K                 4.000e+00   4.000e+00
	S                 2.000e+00   2.000e+00

----------------------------Description of solution----------------------------

                                       pH  =   7.712      Charge balance
                                       pe  =   4.000    
       Specific Conductance (uS/cm, 25 oC) = 25854
                          Density (g/cm3)  =   1.22134
                               Volume (L)  =   1.20894
                        Activity of water  =   0.930
                           Ionic strength  =   6.000e+00
                       Mass of water (kg)  =   1.000e+00
                 Total alkalinity (eq/kg)  =  -3.043e-16
                    Total carbon (mol/kg)  =   0.000e+00
                       Total CO2 (mol/kg)  =   0.000e+00
                      Temperature (deg C)  =  25.00
                  Electrical balance (eq)  =  -3.419e-13
 Percent error, 100*(Cat-|An|)/(Cat+|An|)  =  -0.00
                               Iterations  =  12
                         Gamma iterations  =   5
                      Osmotic coefficient  =   0.67444
                         Density of water  =   0.99704
                                  Total H  = 1.110124e+02
                                  Total O  = 6.350622e+01

----------------------------Distribution of species----------------------------

                                                    MacInnes  MacInnes
                                MacInnes       Log       Log       Log    mole V
   Species          Molality    Activity  Molality  Activity     Gamma   cm3/mol

   OH-             6.271e-07   4.853e-07    -6.203    -6.314    -0.111      4.71
   H+              1.199e-08   1.939e-08    -7.921    -7.712     0.209      0.00
   H2O             5.551e+01   9.297e-01     1.744    -0.032     0.000     18.07
K             4.000e+00
   K+              4.000e+00   1.347e+00     0.602     0.129    -0.473     12.13
S(6)          2.000e+00
   SO4-2           2.000e+00   7.097e-02     0.301    -1.149    -1.450     26.33
   HSO4-           6.151e-07   1.311e-07    -6.211    -6.882    -0.671     42.04

------------------------------Saturation indices-------------------------------

	Phase               SI** log IAP   log K(298 K,   1 atm)

	Arcanite          0.99     -0.89   -1.88  K2SO4
	H2O(g)           -1.53     -0.03    1.50  H2O
	Misenite        -42.48    -53.28  -10.81  K8H6(SO4)7

**For a gas, SI = log10(fugacity). For ideal gases, fugacity = pressure / 1 atm.
For a Peng-Robinson gas, fugacity = pressure * phi / 1 atm

-----------------------------------------
Beginning of batch-reaction calculations.
-----------------------------------------

Reaction step 1.

Using solution 1.	
Using pure phase assemblage 1.	
Using temperature 1.	
Using reaction 1.	

Reaction 1.	

	  1.000e-04 moles of the following reaction have been added:

	                 Relative
	Reactant            moles

	K2SO4               -1.00000
	KCl                  1.00000

	                 Relative
	Element             moles
	Cl                   1.00000
	K                   -1.00000
	O                   -4.00000
	S                   -1.00000

-------------------------------Phase assemblage--------------------------------

                                                      Moles in assemblage
Phase               SI  log IAP  log K(T, P)   Initial       Final       Delta

Arcanite          0.00    -2.02     -2.02    1.000e+01   1.146e+01   1.458e+00
Sylvite          -5.34    -4.56      0.78    0.000e+00           0   0.000e+00

-----------------------------Solution composition------------------------------

	Elements           Molality       Moles

	Cl                1.000e-04   1.000e-04
	K                 1.083e+00   1.083e+00
	S                 5.417e-01   5.417e-01

----------------------------Description of solution----------------------------

                                       pH  =   7.555      Charge balance
                                       pe  =   4.000      Adjusted to redox equilibrium
       Specific Conductance (uS/cm, 15 oC) = 35393
                          Density (g/cm3)  =   1.07077
                               Volume (L)  =   1.05444
                        Activity of water  =   0.981
                           Ionic strength  =   1.625e+00
                       Mass of water (kg)  =   1.000e+00
                 Total alkalinity (eq/kg)  =  -8.044e-16
                    Total carbon (mol/kg)  =   0.000e+00
                       Total CO2 (mol/kg)  =   0.000e+00
                      Temperature (deg C)  =  15.00
                  Electrical balance (eq)  =  -8.993e-13
 Percent error, 100*(Cat-|An|)/(Cat+|An|)  =  -0.00
                               Iterations  =  10
                         Gamma iterations  =   4
                      Osmotic coefficient  =   0.66846
                         Density of water  =   0.99910
                                  Total H  = 1.110124e+02
                                  Total O  = 5.767289e+01

----------------------------Distribution of species----------------------------

                                                    MacInnes  MacInnes
                                MacInnes       Log       Log       Log    mole V
   Species          Molality    Activity  Molality  Activity     Gamma   cm3/mol

   OH-             2.333e-07   1.598e-07    -6.632    -6.797    -0.164     -1.79
   H+              6.273e-08   2.785e-08    -7.203    -7.555    -0.353      0.00
   H2O             5.551e+01   9.806e-01     1.744    -0.008     0.000     18.03
Cl            1.000e-04
   Cl-             1.000e-04   5.732e-05    -4.000    -4.242    -0.242     18.75
K             1.083e+00
   K+              1.083e+00   4.834e-01     0.035    -0.316    -0.350      9.86
S(6)          5.417e-01
   SO4-2           5.417e-01   4.062e-02    -0.266    -1.391    -1.125     19.35
   HSO4-           1.706e-07   8.201e-08    -6.768    -7.086    -0.318     40.44

------------------------------Saturation indices-------------------------------

	Phase               SI** log IAP   log K(288 K,   1 atm)

	Arcanite          0.00     -2.02   -2.02  K2SO4
	H2O(g)           -1.78     -0.01    1.77  H2O
	Misenite        -46.79    -57.60  -10.81  K8H6(SO4)7
	Sylvite          -5.34     -4.56    0.78  KCl

**For a gas, SI = log10(fugacity). For ideal gases, fugacity = pressure / 1 atm.
For a Peng-Robinson gas, fugacity = pressure * phi / 1 atm

Reaction step 2.

Using solution 1.	
Using pure phase assemblage 1.	
Using temperature 1.	
Using reaction 1.	

Reaction 1.	

	  1.000e+00 moles of the following reaction have been added:

	                 Relative
	Reactant            moles

	K2SO4               -1.00000
	KCl                  1.00000

	                 Relative
	Element             moles
	Cl                   1.00000
	K                   -1.00000
	O                   -4.00000
	S                   -1.00000

-------------------------------Phase assemblage--------------------------------

                                                      Moles in assemblage
Phase               SI  log IAP  log K(T, P)   Initial       Final       Delta

Arcanite          0.00    -2.02     -2.02    1.100e+01   1.072e+01  -2.819e-01
Sylvite          -1.13    -0.34      0.78    0.000e+00           0   0.000e+00

-----------------------------Solution composition------------------------------

	Elements           Molality       Moles

	Cl                1.000e+00   1.000e+00
	K                 1.564e+00   1.564e+00
	S                 2.819e-01   2.819e-01

----------------------------Description of solution----------------------------

                                       pH  =   7.390      Charge balance
                                       pe  =   4.000      Adjusted to redox equilibrium
       Specific Conductance (uS/cm, 15 oC) = 68503
                          Density (g/cm3)  =   1.07952
                               Volume (L)  =   1.05762
                        Activity of water  =   0.959
                           Ionic strength  =   1.846e+00
                       Mass of water (kg)  =   1.000e+00
                 Total alkalinity (eq/kg)  =  -7.555e-16
                    Total carbon (mol/kg)  =   0.000e+00
                       Total CO2 (mol/kg)  =   0.000e+00
                      Temperature (deg C)  =  15.00
                  Electrical balance (eq)  =  -3.618e-13
 Percent error, 100*(Cat-|An|)/(Cat+|An|)  =  -0.00
                               Iterations  =  16
                         Gamma iterations  =   3
                      Osmotic coefficient  =   0.81979
                         Density of water  =   0.99910
                                  Total H  = 1.110124e+02
                                  Total O  = 5.663370e+01

----------------------------Distribution of species----------------------------

                                                    MacInnes  MacInnes
                                MacInnes       Log       Log       Log    mole V
   Species          Molality    Activity  Molality  Activity     Gamma   cm3/mol

   OH-             1.528e-07   1.067e-07    -6.816    -6.972    -0.156     -1.47
   H+              5.684e-08   4.078e-08    -7.245    -7.390    -0.144      0.00
   H2O             5.551e+01   9.588e-01     1.744    -0.018     0.000     18.03
Cl            1.000e+00
   Cl-             1.000e+00   5.679e-01     0.000    -0.246    -0.246     18.83
K             1.564e+00
   K+              1.564e+00   7.961e-01     0.194    -0.099    -0.293      9.98
S(6)          2.819e-01
   SO4-2           2.819e-01   1.498e-02    -0.550    -1.825    -1.275     19.78
   HSO4-           9.592e-08   4.429e-08    -7.018    -7.354    -0.336     40.50

------------------------------Saturation indices-------------------------------

	Phase               SI** log IAP   log K(288 K,   1 atm)

	Arcanite          0.00     -2.02   -2.02  K2SO4
	H2O(g)           -1.79     -0.02    1.77  H2O
	Misenite        -47.10    -57.90  -10.81  K8H6(SO4)7
	Sylvite          -1.13     -0.34    0.78  KCl

**For a gas, SI = log10(fugacity). For ideal gases, fugacity = pressure / 1 atm.
For a Peng-Robinson gas, fugacity = pressure * phi / 1 atm

Reaction step 3.

Using solution 1.	
Using pure phase assemblage 1.	
Using temperature 1.	
Using reaction 1.	

Reaction 1.	

	  1.000e+00 moles of the following reaction have been added:

	                 Relative
	Reactant            moles

	K2SO4               -1.00000
	KCl                  1.00000

	                 Relative
	Element             moles
	Cl                   1.00000
	K                   -1.00000
	O                   -4.00000
	S                   -1.00000

-------------------------------Phase assemblage--------------------------------

                                                      Moles in assemblage
Phase               SI  log IAP  log K(T, P)   Initial       Final       Delta

Arcanite          0.00    -2.02     -2.02    1.000e+01   9.827e+00  -1.731e-01
Sylvite          -0.64     0.14      0.78    0.000e+00           0   0.000e+00

-----------------------------Solution composition------------------------------

	Elements           Molality       Moles

	Cl                2.000e+00   2.000e+00
	K                 2.346e+00   2.346e+00
	S                 1.731e-01   1.731e-01

----------------------------Description of solution----------------------------

                                       pH  =   7.275      Charge balance
                                       pe  =   4.000      Adjusted to redox equilibrium
       Specific Conductance (uS/cm, 15 oC) = 98021
                          Density (g/cm3)  =   1.10541
                               Volume (L)  =   1.07686
                        Activity of water  =   0.931
                           Ionic strength  =   2.520e+00
                       Mass of water (kg)  =   1.000e+00
                 Total alkalinity (eq/kg)  =  -6.087e-16
                    Total carbon (mol/kg)  =   0.000e+00
                       Total CO2 (mol/kg)  =   0.000e+00
                      Temperature (deg C)  =  15.00
                  Electrical balance (eq)  =   1.502e-10
 Percent error, 100*(Cat-|An|)/(Cat+|An|)  =   0.00
                               Iterations  =  14
                         Gamma iterations  =   4
                      Osmotic coefficient  =   0.87714
                         Density of water  =   0.99910
                                  Total H  = 1.110124e+02
                                  Total O  = 5.619880e+01

----------------------------Distribution of species----------------------------

                                                    MacInnes  MacInnes
                                MacInnes       Log       Log       Log    mole V
   Species          Molality    Activity  Molality  Activity     Gamma   cm3/mol

   OH-             1.091e-07   7.949e-08    -6.962    -7.100    -0.137     -0.54
   H+              5.274e-08   5.313e-08    -7.278    -7.275     0.003      0.00
   H2O             5.551e+01   9.311e-01     1.744    -0.031     0.000     18.03
Cl            2.000e+00
   Cl-             2.000e+00   1.118e+00     0.301     0.048    -0.253     19.03
K             2.346e+00
   K+              2.346e+00   1.239e+00     0.370     0.093    -0.277     10.34
S(6)          1.731e-01
   SO4-2           1.731e-01   6.185e-03    -0.762    -2.209    -1.447     20.95
   HSO4-           5.634e-08   2.383e-08    -7.249    -7.623    -0.374     40.66

------------------------------Saturation indices-------------------------------

	Phase               SI** log IAP   log K(288 K,   1 atm)

	Arcanite          0.00     -2.02   -2.02  K2SO4
	H2O(g)           -1.80     -0.03    1.77  H2O
	Misenite        -47.56    -58.36  -10.81  K8H6(SO4)7
	Sylvite          -0.64      0.14    0.78  KCl

**For a gas, SI = log10(fugacity). For ideal gases, fugacity = pressure / 1 atm.
For a Peng-Robinson gas, fugacity = pressure * phi / 1 atm

Reaction step 4.

Using solution 1.	
Using pure phase assemblage 1.	
Using temperature 1.	
Using reaction 1.	

Reaction 1.	

	  1.000e+00 moles of the following reaction have been added:

	                 Relative
	Reactant            moles

	K2SO4               -1.00000
	KCl                  1.00000

	                 Relative
	Element             moles
	Cl                   1.00000
	K                   -1.00000
	O                   -4.00000
	S                   -1.00000

-------------------------------Phase assemblage--------------------------------

                                                      Moles in assemblage
Phase               SI  log IAP  log K(T, P)   Initial       Final       Delta

Arcanite          0.00    -2.02     -2.02    9.000e+00   8.881e+00  -1.187e-01
Sylvite          -0.32     0.47      0.78    0.000e+00           0   0.000e+00

-----------------------------Solution composition------------------------------

	Elements           Molality       Moles

	Cl                3.000e+00   3.000e+00
	K                 3.237e+00   3.237e+00
	S                 1.187e-01   1.187e-01

----------------------------Description of solution----------------------------

                                       pH  =   7.202      Charge balance
                                       pe  =   4.000      Adjusted to redox equilibrium
       Specific Conductance (uS/cm, 15 oC) = 122231
                          Density (g/cm3)  =   1.13521
                               Volume (L)  =   1.10282
                        Activity of water  =   0.901
                           Ionic strength  =   3.356e+00
                       Mass of water (kg)  =   1.000e+00
                 Total alkalinity (eq/kg)  =  -2.039e-15
                    Total carbon (mol/kg)  =   0.000e+00
                       Total CO2 (mol/kg)  =   0.000e+00
                      Temperature (deg C)  =  15.00
                  Electrical balance (eq)  =   1.844e-10
 Percent error, 100*(Cat-|An|)/(Cat+|An|)  =   0.00
                               Iterations  =  14
                         Gamma iterations  =   4
                      Osmotic coefficient  =   0.91450
                         Density of water  =   0.99910
                                  Total H  = 1.110124e+02
                                  Total O  = 5.598085e+01

----------------------------Distribution of species----------------------------

                                                    MacInnes  MacInnes
                                MacInnes       Log       Log       Log    mole V
   Species          Molality    Activity  Molality  Activity     Gamma   cm3/mol

   OH-             8.385e-08   6.501e-08    -7.076    -7.187    -0.111      0.58
   H+              4.730e-08   6.284e-08    -7.325    -7.202     0.123      0.00
   H2O             5.551e+01   9.006e-01     1.744    -0.045     0.000     18.03
Cl            3.000e+00
   Cl-             3.000e+00   1.675e+00     0.477     0.224    -0.253     19.24
K             3.237e+00
   K+              3.237e+00   1.745e+00     0.510     0.242    -0.268     10.77
S(6)          1.187e-01
   SO4-2           1.187e-01   3.116e-03    -0.926    -2.506    -1.581     22.20
   HSO4-           3.655e-08   1.420e-08    -7.437    -7.848    -0.411     40.83

------------------------------Saturation indices-------------------------------

	Phase               SI** log IAP   log K(288 K,   1 atm)

	Arcanite          0.00     -2.02   -2.02  K2SO4
	H2O(g)           -1.81     -0.05    1.77  H2O
	Misenite        -48.01    -58.82  -10.81  K8H6(SO4)7
	Sylvite          -0.32      0.47    0.78  KCl

**For a gas, SI = log10(fugacity). For ideal gases, fugacity = pressure / 1 atm.
For a Peng-Robinson gas, fugacity = pressure * phi / 1 atm

Reaction step 5.

Using solution 1.	
Using pure phase assemblage 1.	
Using temperature 1.	
Using reaction 1.	

Reaction 1.	

	  1.000e+00 moles of the following reaction have been added:

	                 Relative
	Reactant            moles

	K2SO4               -1.00000
	KCl                  1.00000

	                 Relative
	Element             moles
	Cl                   1.00000
	K                   -1.00000
	O                   -4.00000
	S                   -1.00000

-------------------------------Phase assemblage--------------------------------

                                                      Moles in assemblage
Phase               SI  log IAP  log K(T, P)   Initial       Final       Delta

Arcanite         -0.00    -2.02     -2.02    8.000e+00   7.915e+00  -8.512e-02
Sylvite          -0.07     0.72      0.78    0.000e+00           0   0.000e+00

-----------------------------Solution composition------------------------------

	Elements           Molality       Moles

	Cl                4.000e+00   4.000e+00
	K                 4.170e+00   4.170e+00
	S                 8.512e-02   8.512e-02

----------------------------Description of solution----------------------------

                                       pH  =   7.152      Charge balance
                                       pe  =   4.000      Adjusted to redox equilibrium
       Specific Conductance (uS/cm, 15 oC) = 144567
                          Density (g/cm3)  =   1.16455
                               Volume (L)  =   1.13219
                        Activity of water  =   0.868
                           Ionic strength  =   4.255e+00
                       Mass of water (kg)  =   1.000e+00
                 Total alkalinity (eq/kg)  =  -2.816e-15
                    Total carbon (mol/kg)  =   0.000e+00
                       Total CO2 (mol/kg)  =   0.000e+00
                      Temperature (deg C)  =  15.00
                  Electrical balance (eq)  =   1.869e-10
 Percent error, 100*(Cat-|An|)/(Cat+|An|)  =   0.00
                               Iterations  =  14
                         Gamma iterations  =   4
                      Osmotic coefficient  =   0.94818
                         Density of water  =   0.99910
                                  Total H  = 1.110124e+02
                                  Total O  = 5.584670e+01

----------------------------Distribution of species----------------------------

                                                    MacInnes  MacInnes
                                MacInnes       Log       Log       Log    mole V
   Species          Molality    Activity  Molality  Activity     Gamma   cm3/mol

   OH-             6.687e-08   5.586e-08    -7.175    -7.253    -0.078      1.76
   H+              4.153e-08   7.052e-08    -7.382    -7.152     0.230      0.00
   H2O             5.551e+01   8.685e-01     1.744    -0.061     0.000     18.03
Cl            4.000e+00
   Cl-             4.000e+00   2.262e+00     0.602     0.354    -0.248     19.44
K             4.170e+00
   K+              4.170e+00   2.305e+00     0.620     0.363    -0.258     11.23
S(6)          8.512e-02
   SO4-2           8.512e-02   1.787e-03    -1.070    -2.748    -1.678     23.37
   HSO4-           2.534e-08   9.137e-09    -7.596    -8.039    -0.443     40.99

------------------------------Saturation indices-------------------------------

	Phase               SI** log IAP   log K(288 K,   1 atm)

	Arcanite         -0.00     -2.02   -2.02  K2SO4
	H2O(g)           -1.83     -0.06    1.77  H2O
	Misenite        -48.44    -59.24  -10.81  K8H6(SO4)7
	Sylvite          -0.07      0.72    0.78  KCl

**For a gas, SI = log10(fugacity). For ideal gases, fugacity = pressure / 1 atm.
For a Peng-Robinson gas, fugacity = pressure * phi / 1 atm

Reaction step 6.

Using solution 1.	
Using pure phase assemblage 1.	
Using temperature 1.	
Using reaction 1.	

Reaction 1.	

	  1.000e+00 moles of the following reaction have been added:

	                 Relative
	Reactant            moles

	K2SO4               -1.00000
	KCl                  1.00000

	                 Relative
	Element             moles
	Cl                   1.00000
	K                   -1.00000
	O                   -4.00000
	S                   -1.00000

-------------------------------Phase assemblage--------------------------------

                                                      Moles in assemblage
Phase               SI  log IAP  log K(T, P)   Initial       Final       Delta

Arcanite          0.00    -2.02     -2.02    7.000e+00   6.922e+00  -7.745e-02
Sylvite           0.00     0.78      0.78    0.000e+00   7.030e-01   7.030e-01

-----------------------------Solution composition------------------------------

	Elements           Molality       Moles

	Cl                4.297e+00   4.297e+00
	K                 4.452e+00   4.452e+00
	S                 7.745e-02   7.745e-02

----------------------------Description of solution----------------------------

                                       pH  =   7.140      Charge balance
                                       pe  =   4.000      Adjusted to redox equilibrium
       Specific Conductance (uS/cm, 15 oC) = 151325
                          Density (g/cm3)  =   1.17295
                               Volume (L)  =   1.14140
                        Activity of water  =   0.859
                           Ionic strength  =   4.529e+00
                       Mass of water (kg)  =   1.000e+00
                 Total alkalinity (eq/kg)  =  -3.485e-15
                    Total carbon (mol/kg)  =   0.000e+00
                       Total CO2 (mol/kg)  =   0.000e+00
                      Temperature (deg C)  =  15.00
                  Electrical balance (eq)  =   2.646e-08
 Percent error, 100*(Cat-|An|)/(Cat+|An|)  =   0.00
                               Iterations  =  10
                         Gamma iterations  =   3
                      Osmotic coefficient  =   0.95807
                         Density of water  =   0.99910
                                  Total H  = 1.110124e+02
                                  Total O  = 5.581600e+01

----------------------------Distribution of species----------------------------

                                                    MacInnes  MacInnes
                                MacInnes       Log       Log       Log    mole V
   Species          Molality    Activity  Molality  Activity     Gamma   cm3/mol

   OH-             6.279e-08   5.373e-08    -7.202    -7.270    -0.068      2.11
   H+              3.987e-08   7.250e-08    -7.399    -7.140     0.260      0.00
   H2O             5.551e+01   8.587e-01     1.744    -0.066     0.000     18.03
Cl            4.297e+00
   Cl-             4.297e+00   2.445e+00     0.633     0.388    -0.245     19.50
K             4.452e+00
   K+              4.452e+00   2.482e+00     0.649     0.395    -0.254     11.38
S(6)          7.745e-02
   SO4-2           7.745e-02   1.541e-03    -1.111    -2.812    -1.701     23.70
   HSO4-           2.292e-08   8.101e-09    -7.640    -8.091    -0.452     41.03

------------------------------Saturation indices-------------------------------

	Phase               SI** log IAP   log K(288 K,   1 atm)

	Arcanite          0.00     -2.02   -2.02  K2SO4
	H2O(g)           -1.84     -0.07    1.77  H2O
	Misenite        -48.56    -59.37  -10.81  K8H6(SO4)7
	Sylvite           0.00      0.78    0.78  KCl

**For a gas, SI = log10(fugacity). For ideal gases, fugacity = pressure / 1 atm.
For a Peng-Robinson gas, fugacity = pressure * phi / 1 atm

Reaction step 7.

Using solution 1.	
Using pure phase assemblage 1.	
Using temperature 1.	
Using reaction 1.	

Reaction 1.	

	  1.000e+00 moles of the following reaction have been added:

	                 Relative
	Reactant            moles

	K2SO4               -1.00000
	KCl                  1.00000

	                 Relative
	Element             moles
	Cl                   1.00000
	K                   -1.00000
	O                   -4.00000
	S                   -1.00000

-------------------------------Phase assemblage--------------------------------

                                                      Moles in assemblage
Phase               SI  log IAP  log K(T, P)   Initial       Final       Delta

Arcanite          0.00    -2.02     -2.02    6.000e+00   5.922e+00  -7.745e-02
Sylvite           0.00     0.78      0.78    7.030e-01   1.703e+00   1.000e+00

-----------------------------Solution composition------------------------------

	Elements           Molality       Moles

	Cl                4.297e+00   4.297e+00
	K                 4.452e+00   4.452e+00
	S                 7.745e-02   7.745e-02

----------------------------Description of solution----------------------------

                                       pH  =   7.140      Charge balance
                                       pe  =   4.000      Adjusted to redox equilibrium
       Specific Conductance (uS/cm, 15 oC) = 151325
                          Density (g/cm3)  =   1.17295
                               Volume (L)  =   1.14140
                        Activity of water  =   0.859
                           Ionic strength  =   4.529e+00
                       Mass of water (kg)  =   1.000e+00
                 Total alkalinity (eq/kg)  =  -4.705e-15
                    Total carbon (mol/kg)  =   0.000e+00
                       Total CO2 (mol/kg)  =   0.000e+00
                      Temperature (deg C)  =  15.00
                  Electrical balance (eq)  =   2.165e-08
 Percent error, 100*(Cat-|An|)/(Cat+|An|)  =   0.00
                               Iterations  =   7
                         Gamma iterations  =   1
                      Osmotic coefficient  =   0.95807
                         Density of water  =   0.99910
                                  Total H  = 1.110124e+02
                                  Total O  = 5.581600e+01

----------------------------Distribution of species----------------------------

                                                    MacInnes  MacInnes
                                MacInnes       Log       Log       Log    mole V
   Species          Molality    Activity  Molality  Activity     Gamma   cm3/mol

   OH-             6.279e-08   5.373e-08    -7.202    -7.270    -0.068      2.11
   H+              3.987e-08   7.250e-08    -7.399    -7.140     0.260      0.00
   H2O             5.551e+01   8.587e-01     1.744    -0.066     0.000     18.03
Cl            4.297e+00
   Cl-             4.297e+00   2.445e+00     0.633     0.388    -0.245     19.50
K             4.452e+00
   K+              4.452e+00   2.482e+00     0.649     0.395    -0.254     11.38
S(6)          7.745e-02
   SO4-2           7.745e-02   1.541e-03    -1.111    -2.812    -1.701     23.70
   HSO4-           2.292e-08   8.101e-09    -7.640    -8.091    -0.452     41.03

------------------------------Saturation indices-------------------------------

	Phase               SI** log IAP   log K(288 K,   1 atm)

	Arcanite          0.00     -2.02   -2.02  K2SO4
	H2O(g)           -1.84     -0.07    1.77  H2O
	Misenite        -48.56    -59.37  -10.81  K8H6(SO4)7
	Sylvite           0.00      0.78    0.78  KCl

**For a gas, SI = log10(fugacity). For ideal gases, fugacity = pressure / 1 atm.
For a Peng-Robinson gas, fugacity = pressure * phi / 1 atm

Reaction step 8.

Using solution 1.	
Using pure phase assemblage 1.	
Using temperature 1.	
Using reaction 1.	

Reaction 1.	

	  1.000e+00 moles of the following reaction have been added:

	                 Relative
	Reactant            moles

	K2SO4               -1.00000
	KCl                  1.00000

	                 Relative
	Element             moles
	Cl                   1.00000
	K                   -1.00000
	O                   -4.00000
	S                   -1.00000

-------------------------------Phase assemblage--------------------------------

                                                      Moles in assemblage
Phase               SI  log IAP  log K(T, P)   Initial       Final       Delta

Arcanite          0.00    -2.02     -2.02    5.000e+00   4.922e+00  -7.745e-02
Sylvite           0.00     0.78      0.78    1.703e+00   2.703e+00   1.000e+00

-----------------------------Solution composition------------------------------

	Elements           Molality       Moles

	Cl                4.297e+00   4.297e+00
	K                 4.452e+00   4.452e+00
	S                 7.745e-02   7.745e-02

----------------------------Description of solution----------------------------

                                       pH  =   7.140      Charge balance
                                       pe  =   4.000      Adjusted to redox equilibrium
       Specific Conductance (uS/cm, 15 oC) = 151325
                          Density (g/cm3)  =   1.17295
                               Volume (L)  =   1.14140
                        Activity of water  =   0.859
                           Ionic strength  =   4.529e+00
                       Mass of water (kg)  =   1.000e+00
                 Total alkalinity (eq/kg)  =  -5.588e-15
                    Total carbon (mol/kg)  =   0.000e+00
                       Total CO2 (mol/kg)  =   0.000e+00
                      Temperature (deg C)  =  15.00
                  Electrical balance (eq)  =   1.684e-08
 Percent error, 100*(Cat-|An|)/(Cat+|An|)  =   0.00
                               Iterations  =   7
                         Gamma iterations  =   1
                      Osmotic coefficient  =   0.95807
                         Density of water  =   0.99910
                                  Total H  = 1.110124e+02
                                  Total O  = 5.581600e+01

----------------------------Distribution of species----------------------------

                                                    MacInnes  MacInnes
                                MacInnes       Log       Log       Log    mole V
   Species          Molality    Activity  Molality  Activity     Gamma   cm3/mol

   OH-             6.279e-08   5.373e-08    -7.202    -7.270    -0.068      2.11
   H+              3.987e-08   7.250e-08    -7.399    -7.140     0.260      0.00
   H2O             5.551e+01   8.587e-01     1.744    -0.066     0.000     18.03
Cl            4.297e+00
   Cl-             4.297e+00   2.445e+00     0.633     0.388    -0.245     19.50
K             4.452e+00
   K+              4.452e+00   2.482e+00     0.649     0.395    -0.254     11.38
S(6)          7.745e-02
   SO4-2           7.745e-02   1.541e-03    -1.111    -2.812    -1.701     23.70
   HSO4-           2.292e-08   8.101e-09    -7.640    -8.091    -0.452     41.03

------------------------------Saturation indices-------------------------------

	Phase               SI** log IAP   log K(288 K,   1 atm)

	Arcanite          0.00     -2.02   -2.02  K2SO4
	H2O(g)           -1.84     -0.07    1.77  H2O
	Misenite        -48.56    -59.37  -10.81  K8H6(SO4)7
	Sylvite           0.00      0.78    0.78  KCl

**For a gas, SI = log10(fugacity). For ideal gases, fugacity = pressure / 1 atm.
For a Peng-Robinson gas, fugacity = pressure * phi / 1 atm

Reaction step 9.

Using solution 1.	
Using pure phase assemblage 1.	
Using temperature 1.	
Using reaction 1.	

Reaction 1.	

	  1.000e+00 moles of the following reaction have been added:

	                 Relative
	Reactant            moles

	K2SO4               -1.00000
	KCl                  1.00000

	                 Relative
	Element             moles
	Cl                   1.00000
	K                   -1.00000
	O                   -4.00000
	S                   -1.00000

-------------------------------Phase assemblage--------------------------------

                                                      Moles in assemblage
Phase               SI  log IAP  log K(T, P)   Initial       Final       Delta

Arcanite          0.00    -2.02     -2.02    4.000e+00   3.922e+00  -7.745e-02
Sylvite           0.00     0.78      0.78    2.703e+00   3.703e+00   1.000e+00

-----------------------------Solution composition------------------------------

	Elements           Molality       Moles

	Cl                4.297e+00   4.297e+00
	K                 4.452e+00   4.452e+00
	S                 7.745e-02   7.745e-02

----------------------------Description of solution----------------------------

                                       pH  =   7.140      Charge balance
                                       pe  =   4.000      Adjusted to redox equilibrium
       Specific Conductance (uS/cm, 15 oC) = 151325
                          Density (g/cm3)  =   1.17295
                               Volume (L)  =   1.14140
                        Activity of water  =   0.859
                           Ionic strength  =   4.529e+00
                       Mass of water (kg)  =   1.000e+00
                 Total alkalinity (eq/kg)  =  -6.574e-15
                    Total carbon (mol/kg)  =   0.000e+00
                       Total CO2 (mol/kg)  =   0.000e+00
                      Temperature (deg C)  =  15.00
                  Electrical balance (eq)  =   1.203e-08
 Percent error, 100*(Cat-|An|)/(Cat+|An|)  =   0.00
                               Iterations  =   7
                         Gamma iterations  =   1
                      Osmotic coefficient  =   0.95807
                         Density of water  =   0.99910
                                  Total H  = 1.110124e+02
                                  Total O  = 5.581600e+01

----------------------------Distribution of species----------------------------

                                                    MacInnes  MacInnes
                                MacInnes       Log       Log       Log    mole V
   Species          Molality    Activity  Molality  Activity     Gamma   cm3/mol

   OH-             6.279e-08   5.373e-08    -7.202    -7.270    -0.068      2.11
   H+              3.987e-08   7.250e-08    -7.399    -7.140     0.260      0.00
   H2O             5.551e+01   8.587e-01     1.744    -0.066     0.000     18.03
Cl            4.297e+00
   Cl-             4.297e+00   2.445e+00     0.633     0.388    -0.245     19.50
K             4.452e+00
   K+              4.452e+00   2.482e+00     0.649     0.395    -0.254     11.38
S(6)          7.745e-02
   SO4-2           7.745e-02   1.541e-03    -1.111    -2.812    -1.701     23.70
   HSO4-           2.292e-08   8.101e-09    -7.640    -8.091    -0.452     41.03

------------------------------Saturation indices-------------------------------

	Phase               SI** log IAP   log K(288 K,   1 atm)

	Arcanite          0.00     -2.02   -2.02  K2SO4
	H2O(g)           -1.84     -0.07    1.77  H2O
	Misenite        -48.56    -59.37  -10.81  K8H6(SO4)7
	Sylvite           0.00      0.78    0.78  KCl

**For a gas, SI = log10(fugacity). For ideal gases, fugacity = pressure / 1 atm.
For a Peng-Robinson gas, fugacity = pressure * phi / 1 atm

Reaction step 10.

Using solution 1.	
Using pure phase assemblage 1.	
Using temperature 1.	
Using reaction 1.	

Reaction 1.	

	  1.000e+00 moles of the following reaction have been added:

	                 Relative
	Reactant            moles

	K2SO4               -1.00000
	KCl                  1.00000

	                 Relative
	Element             moles
	Cl                   1.00000
	K                   -1.00000
	O                   -4.00000
	S                   -1.00000

-------------------------------Phase assemblage--------------------------------

                                                      Moles in assemblage
Phase               SI  log IAP  log K(T, P)   Initial       Final       Delta

Arcanite          0.00    -2.02     -2.02    3.000e+00   2.922e+00  -7.745e-02
Sylvite           0.00     0.78      0.78    3.703e+00   4.703e+00   1.000e+00

-----------------------------Solution composition------------------------------

	Elements           Molality       Moles

	Cl                4.297e+00   4.297e+00
	K                 4.452e+00   4.452e+00
	S                 7.745e-02   7.745e-02

----------------------------Description of solution----------------------------

                                       pH  =   7.140      Charge balance
                                       pe  =   4.000      Adjusted to redox equilibrium
       Specific Conductance (uS/cm, 15 oC) = 151325
                          Density (g/cm3)  =   1.17295
                               Volume (L)  =   1.14140
                        Activity of water  =   0.859
                           Ionic strength  =   4.529e+00
                       Mass of water (kg)  =   1.000e+00
                 Total alkalinity (eq/kg)  =  -6.823e-15
                    Total carbon (mol/kg)  =   0.000e+00
                       Total CO2 (mol/kg)  =   0.000e+00
                      Temperature (deg C)  =  15.00
                  Electrical balance (eq)  =   7.216e-09
 Percent error, 100*(Cat-|An|)/(Cat+|An|)  =   0.00
                               Iterations  =   7
                         Gamma iterations  =   1
                      Osmotic coefficient  =   0.95807
                         Density of water  =   0.99910
                                  Total H  = 1.110124e+02
                                  Total O  = 5.581600e+01

----------------------------Distribution of species----------------------------

                                                    MacInnes  MacInnes
                                MacInnes       Log       Log       Log    mole V
   Species          Molality    Activity  Molality  Activity     Gamma   cm3/mol

   OH-             6.279e-08   5.373e-08    -7.202    -7.270    -0.068      2.11
   H+              3.987e-08   7.250e-08    -7.399    -7.140     0.260      0.00
   H2O             5.551e+01   8.587e-01     1.744    -0.066     0.000     18.03
Cl            4.297e+00
   Cl-             4.297e+00   2.445e+00     0.633     0.388    -0.245     19.50
K             4.452e+00
   K+              4.452e+00   2.482e+00     0.649     0.395    -0.254     11.38
S(6)          7.745e-02
   SO4-2           7.745e-02   1.541e-03    -1.111    -2.812    -1.701     23.70
   HSO4-           2.292e-08   8.101e-09    -7.640    -8.091    -0.452     41.03

------------------------------Saturation indices-------------------------------

	Phase               SI** log IAP   log K(288 K,   1 atm)

	Arcanite          0.00     -2.02   -2.02  K2SO4
	H2O(g)           -1.84     -0.07    1.77  H2O
	Misenite        -48.56    -59.37  -10.81  K8H6(SO4)7
	Sylvite           0.00      0.78    0.78  KCl

**For a gas, SI = log10(fugacity). For ideal gases, fugacity = pressure / 1 atm.
For a Peng-Robinson gas, fugacity = pressure * phi / 1 atm

Reaction step 11.

Using solution 1.	
Using pure phase assemblage 1.	
Using temperature 1.	
Using reaction 1.	

Reaction 1.	

	  1.000e+00 moles of the following reaction have been added:

	                 Relative
	Reactant            moles

	K2SO4               -1.00000
	KCl                  1.00000

	                 Relative
	Element             moles
	Cl                   1.00000
	K                   -1.00000
	O                   -4.00000
	S                   -1.00000

-------------------------------Phase assemblage--------------------------------

                                                      Moles in assemblage
Phase               SI  log IAP  log K(T, P)   Initial       Final       Delta

Arcanite          0.00    -2.02     -2.02    2.000e+00   1.922e+00  -7.745e-02
Sylvite           0.00     0.78      0.78    4.703e+00   5.703e+00   1.000e+00

-----------------------------Solution composition------------------------------

	Elements           Molality       Moles

	Cl                4.297e+00   4.297e+00
	K                 4.452e+00   4.452e+00
	S                 7.745e-02   7.745e-02

----------------------------Description of solution----------------------------

                                       pH  =   7.140      Charge balance
                                       pe  =   4.000      Adjusted to redox equilibrium
       Specific Conductance (uS/cm, 15 oC) = 151325
                          Density (g/cm3)  =   1.17295
                               Volume (L)  =   1.14140
                        Activity of water  =   0.859
                           Ionic strength  =   4.529e+00
                       Mass of water (kg)  =   1.000e+00
                 Total alkalinity (eq/kg)  =  -8.508e-15
                    Total carbon (mol/kg)  =   0.000e+00
                       Total CO2 (mol/kg)  =   0.000e+00
                      Temperature (deg C)  =  15.00
                  Electrical balance (eq)  =   2.405e-09
 Percent error, 100*(Cat-|An|)/(Cat+|An|)  =   0.00
                               Iterations  =   7
                         Gamma iterations  =   1
                      Osmotic coefficient  =   0.95807
                         Density of water  =   0.99910
                                  Total H  = 1.110124e+02
                                  Total O  = 5.581600e+01

----------------------------Distribution of species----------------------------

                                                    MacInnes  MacInnes
                                MacInnes       Log       Log       Log    mole V
   Species          Molality    Activity  Molality  Activity     Gamma   cm3/mol

   OH-             6.279e-08   5.373e-08    -7.202    -7.270    -0.068      2.11
   H+              3.987e-08   7.250e-08    -7.399    -7.140     0.260      0.00
   H2O             5.551e+01   8.587e-01     1.744    -0.066     0.000     18.03
Cl            4.297e+00
   Cl-             4.297e+00   2.445e+00     0.633     0.388    -0.245     19.50
K             4.452e+00
   K+              4.452e+00   2.482e+00     0.649     0.395    -0.254     11.38
S(6)          7.745e-02
   SO4-2           7.745e-02   1.541e-03    -1.111    -2.812    -1.701     23.70
   HSO4-           2.292e-08   8.101e-09    -7.640    -8.091    -0.452     41.03

------------------------------Saturation indices-------------------------------

	Phase               SI** log IAP   log K(288 K,   1 atm)

	Arcanite          0.00     -2.02   -2.02  K2SO4
	H2O(g)           -1.84     -0.07    1.77  H2O
	Misenite        -48.56    -59.37  -10.81  K8H6(SO4)7
	Sylvite           0.00      0.78    0.78  KCl

**For a gas, SI = log10(fugacity). For ideal gases, fugacity = pressure / 1 atm.
For a Peng-Robinson gas, fugacity = pressure * phi / 1 atm

Reaction step 12.

Using solution 1.	
Using pure phase assemblage 1.	
Using temperature 1.	
Using reaction 1.	

Reaction 1.	

	  1.000e+00 moles of the following reaction have been added:

	                 Relative
	Reactant            moles

	K2SO4               -1.00000
	KCl                  1.00000

	                 Relative
	Element             moles
	Cl                   1.00000
	K                   -1.00000
	O                   -4.00000
	S                   -1.00000

-------------------------------Phase assemblage--------------------------------

                                                      Moles in assemblage
Phase               SI  log IAP  log K(T, P)   Initial       Final       Delta

Arcanite          0.00    -2.02     -2.02    9.999e-01   9.225e-01  -7.745e-02
Sylvite           0.00     0.78      0.78    5.703e+00   6.703e+00   1.000e+00

-----------------------------Solution composition------------------------------

	Elements           Molality       Moles

	Cl                4.297e+00   4.297e+00
	K                 4.452e+00   4.452e+00
	S                 7.745e-02   7.745e-02

----------------------------Description of solution----------------------------

                                       pH  =   7.140      Charge balance
                                       pe  =   4.000      Adjusted to redox equilibrium
       Specific Conductance (uS/cm, 15 oC) = 151325
                          Density (g/cm3)  =   1.17295
                               Volume (L)  =   1.14140
                        Activity of water  =   0.859
                           Ionic strength  =   4.529e+00
                       Mass of water (kg)  =   1.000e+00
                 Total alkalinity (eq/kg)  =  -9.202e-15
                    Total carbon (mol/kg)  =   0.000e+00
                       Total CO2 (mol/kg)  =   0.000e+00
                      Temperature (deg C)  =  15.00
                  Electrical balance (eq)  =  -2.407e-09
 Percent error, 100*(Cat-|An|)/(Cat+|An|)  =  -0.00
                               Iterations  =   7
                         Gamma iterations  =   1
                      Osmotic coefficient  =   0.95807
                         Density of water  =   0.99910
                                  Total H  = 1.110124e+02
                                  Total O  = 5.581600e+01

----------------------------Distribution of species----------------------------

                                                    MacInnes  MacInnes
                                MacInnes       Log       Log       Log    mole V
   Species          Molality    Activity  Molality  Activity     Gamma   cm3/mol

   OH-             6.279e-08   5.373e-08    -7.202    -7.270    -0.068      2.11
   H+              3.987e-08   7.250e-08    -7.399    -7.140     0.260      0.00
   H2O             5.551e+01   8.587e-01     1.744    -0.066     0.000     18.03
Cl            4.297e+00
   Cl-             4.297e+00   2.445e+00     0.633     0.388    -0.245     19.50
K             4.452e+00
   K+              4.452e+00   2.482e+00     0.649     0.395    -0.254     11.38
S(6)          7.745e-02
   SO4-2           7.745e-02   1.541e-03    -1.111    -2.812    -1.701     23.70
   HSO4-           2.292e-08   8.101e-09    -7.640    -8.091    -0.452     41.03

------------------------------Saturation indices-------------------------------

	Phase               SI** log IAP   log K(288 K,   1 atm)

	Arcanite          0.00     -2.02   -2.02  K2SO4
	H2O(g)           -1.84     -0.07    1.77  H2O
	Misenite        -48.56    -59.37  -10.81  K8H6(SO4)7
	Sylvite           0.00      0.78    0.78  KCl

**For a gas, SI = log10(fugacity). For ideal gases, fugacity = pressure / 1 atm.
For a Peng-Robinson gas, fugacity = pressure * phi / 1 atm

Reaction step 13.

Using solution 1.	
Using pure phase assemblage 1.	
Using temperature 1.	
Using reaction 1.	

Reaction 1.	

	  9.999e-01 moles of the following reaction have been added:

	                 Relative
	Reactant            moles

	K2SO4               -1.00000
	KCl                  1.00000

	                 Relative
	Element             moles
	Cl                   1.00000
	K                   -1.00000
	O                   -4.00000
	S                   -1.00000

-------------------------------Phase assemblage--------------------------------

                                                      Moles in assemblage
Phase               SI  log IAP  log K(T, P)   Initial       Final       Delta

Arcanite         -3.90    -5.92     -2.02    1.000e-05           0  -1.000e-05
Sylvite           0.00     0.78      0.78    6.703e+00   7.653e+00   9.496e-01

-----------------------------Solution composition------------------------------

	Elements           Molality       Moles

	Cl                4.347e+00   4.347e+00
	K                 4.347e+00   4.347e+00
	S                 1.000e-05   1.000e-05

----------------------------Description of solution----------------------------

                                       pH  =   7.047      Charge balance
                                       pe  =   4.000      Adjusted to redox equilibrium
       Specific Conductance (uS/cm, 15 oC) = 155981
                          Density (g/cm3)  =   1.16706
                               Volume (L)  =   1.13457
                        Activity of water  =   0.860
                           Ionic strength  =   4.347e+00
                       Mass of water (kg)  =   1.000e+00
                 Total alkalinity (eq/kg)  =  -8.789e-15
                    Total carbon (mol/kg)  =   0.000e+00
                       Total CO2 (mol/kg)  =   0.000e+00
                      Temperature (deg C)  =  15.00
                  Electrical balance (eq)  =  -2.385e-09
 Percent error, 100*(Cat-|An|)/(Cat+|An|)  =  -0.00
                               Iterations  =  13
                         Gamma iterations  =   3
                      Osmotic coefficient  =   0.96357
                         Density of water  =   0.99910
                                  Total H  = 1.110124e+02
                                  Total O  = 5.550626e+01

----------------------------Distribution of species----------------------------

                                                    MacInnes  MacInnes
                                MacInnes       Log       Log       Log    mole V
   Species          Molality    Activity  Molality  Activity     Gamma   cm3/mol

   OH-             5.103e-08   4.344e-08    -7.292    -7.362    -0.070      1.88
   H+              5.103e-08   8.980e-08    -7.292    -7.047     0.245      0.00
   H2O             5.551e+01   8.599e-01     1.744    -0.066     0.000     18.03
Cl            4.347e+00
   Cl-             4.347e+00   2.463e+00     0.638     0.391    -0.247     19.46
K             4.347e+00
   K+              4.347e+00   2.463e+00     0.638     0.391    -0.247     11.28
S(6)          1.000e-05
   SO4-2           1.000e-05   1.972e-07    -5.000    -6.705    -1.705     23.49
   HSO4-           3.520e-12   1.284e-12   -11.453   -11.891    -0.438     41.00

------------------------------Saturation indices-------------------------------

	Phase               SI** log IAP   log K(288 K,   1 atm)

	Arcanite         -3.90     -5.92   -2.02  K2SO4
	H2O(g)           -1.83     -0.07    1.77  H2O
	Misenite        -75.28    -86.08  -10.81  K8H6(SO4)7
	Sylvite           0.00      0.78    0.78  KCl

**For a gas, SI = log10(fugacity). For ideal gases, fugacity = pressure / 1 atm.
For a Peng-Robinson gas, fugacity = pressure * phi / 1 atm

------------------
End of simulation.
------------------

------------------------------------
Reading input data for simulation 2.
------------------------------------

	USE solution 1
	 USE equilibrium_phases 1
	 USE reaction 1
	REACTION_TEMPERATURE 2
	 30
	USER_GRAPH 1
	-headings x 30.oC(Arcanite) SI("Sylvite")
	END
-----------------------------------------
Beginning of batch-reaction calculations.
-----------------------------------------

Reaction step 1.

Using solution 1.	
Using pure phase assemblage 1.	
Using temperature 2.	
Using reaction 1.	

Reaction 1.	

	  1.000e-04 moles of the following reaction have been added:

	                 Relative
	Reactant            moles

	K2SO4               -1.00000
	KCl                  1.00000

	                 Relative
	Element             moles
	Cl                   1.00000
	K                   -1.00000
	O                   -4.00000
	S                   -1.00000

-------------------------------Phase assemblage--------------------------------

                                                      Moles in assemblage
Phase               SI  log IAP  log K(T, P)   Initial       Final       Delta

Arcanite          0.00    -1.82     -1.82    1.000e+01   1.132e+01   1.317e+00
Sylvite          -5.43    -4.48      0.95    0.000e+00           0   0.000e+00

-----------------------------Solution composition------------------------------

	Elements           Molality       Moles

	Cl                1.000e-04   1.000e-04
	K                 1.366e+00   1.366e+00
	S                 6.828e-01   6.828e-01

----------------------------Description of solution----------------------------

                                       pH  =   7.407      Charge balance
                                       pe  =   4.000      Adjusted to redox equilibrium
       Specific Conductance (uS/cm, 30 oC) = 50597
                          Density (g/cm3)  =   1.08269
                               Volume (L)  =   1.07388
                        Activity of water  =   0.976
                           Ionic strength  =   2.048e+00
                       Mass of water (kg)  =   1.000e+00
                 Total alkalinity (eq/kg)  =  -2.584e-15
                    Total carbon (mol/kg)  =   0.000e+00
                       Total CO2 (mol/kg)  =   0.000e+00
                      Temperature (deg C)  =  30.00
                  Electrical balance (eq)  =   2.335e-09
 Percent error, 100*(Cat-|An|)/(Cat+|An|)  =   0.00
                               Iterations  =   9
                         Gamma iterations  =   4
                      Osmotic coefficient  =   0.66611
                         Density of water  =   0.99564
                                  Total H  = 1.110124e+02
                                  Total O  = 5.823738e+01

----------------------------Distribution of species----------------------------

                                                    MacInnes  MacInnes
                                MacInnes       Log       Log       Log    mole V
   Species          Molality    Activity  Molality  Activity     Gamma   cm3/mol

   OH-             5.344e-07   3.654e-07    -6.272    -6.437    -0.165     -0.33
   H+              9.199e-08   3.921e-08    -7.036    -7.407    -0.370      0.00
   H2O             5.551e+01   9.757e-01     1.744    -0.011     0.000     18.09
Cl            1.000e-04
   Cl-             1.000e-04   5.764e-05    -4.000    -4.239    -0.239     19.44
K             1.366e+00
   K+              1.366e+00   5.802e-01     0.135    -0.236    -0.372     10.47
S(6)          6.828e-01
   SO4-2           6.828e-01   4.543e-02    -0.166    -1.343    -1.177     21.75
   HSO4-           4.424e-07   1.952e-07    -6.354    -6.709    -0.355     41.75

------------------------------Saturation indices-------------------------------

	Phase               SI** log IAP   log K(303 K,   1 atm)

	Arcanite          0.00     -1.82   -1.82  K2SO4
	H2O(g)           -1.39     -0.01    1.38  H2O
	Misenite        -44.92    -55.73  -10.81  K8H6(SO4)7
	Sylvite          -5.43     -4.48    0.95  KCl

**For a gas, SI = log10(fugacity). For ideal gases, fugacity = pressure / 1 atm.
For a Peng-Robinson gas, fugacity = pressure * phi / 1 atm

Reaction step 2.

Using solution 1.	
Using pure phase assemblage 1.	
Using temperature 2.	
Using reaction 1.	

Reaction 1.	

	  1.000e+00 moles of the following reaction have been added:

	                 Relative
	Reactant            moles

	K2SO4               -1.00000
	KCl                  1.00000

	                 Relative
	Element             moles
	Cl                   1.00000
	K                   -1.00000
	O                   -4.00000
	S                   -1.00000

-------------------------------Phase assemblage--------------------------------

                                                      Moles in assemblage
Phase               SI  log IAP  log K(T, P)   Initial       Final       Delta

Arcanite          0.00    -1.82     -1.82    1.100e+01   1.061e+01  -3.876e-01
Sylvite          -1.25    -0.30      0.95    0.000e+00           0   0.000e+00

-----------------------------Solution composition------------------------------

	Elements           Molality       Moles

	Cl                1.000e+00   1.000e+00
	K                 1.775e+00   1.775e+00
	S                 3.876e-01   3.876e-01

----------------------------Description of solution----------------------------

                                       pH  =   7.254      Charge balance
                                       pe  =   4.000      Adjusted to redox equilibrium
       Specific Conductance (uS/cm, 30 oC) = 97298
                          Density (g/cm3)  =   1.08664
                               Volume (L)  =   1.07386
                        Activity of water  =   0.955
                           Ionic strength  =   2.163e+00
                       Mass of water (kg)  =   1.000e+00
                 Total alkalinity (eq/kg)  =   6.331e-15
                    Total carbon (mol/kg)  =   0.000e+00
                       Total CO2 (mol/kg)  =   0.000e+00
                      Temperature (deg C)  =  30.00
                  Electrical balance (eq)  =   4.795e-09
 Percent error, 100*(Cat-|An|)/(Cat+|An|)  =   0.00
                               Iterations  =  15
                         Gamma iterations  =   3
                      Osmotic coefficient  =   0.81403
                         Density of water  =   0.99564
                                  Total H  = 1.110124e+02
                                  Total O  = 5.705644e+01

----------------------------Distribution of species----------------------------

                                                    MacInnes  MacInnes
                                MacInnes       Log       Log       Log    mole V
   Species          Molality    Activity  Molality  Activity     Gamma   cm3/mol

   OH-             3.651e-07   2.518e-07    -6.438    -6.599    -0.161     -0.17
   H+              8.245e-08   5.566e-08    -7.084    -7.254    -0.171      0.00
   H2O             5.551e+01   9.547e-01     1.744    -0.020     0.000     18.09
Cl            1.000e+00
   Cl-             1.000e+00   5.754e-01     0.000    -0.240    -0.240     19.48
K             1.775e+00
   K+              1.775e+00   8.767e-01     0.249    -0.057    -0.306     10.52
S(6)          3.876e-01
   SO4-2           3.876e-01   1.990e-02    -0.412    -1.701    -1.289     21.94
   HSO4-           2.826e-07   1.214e-07    -6.549    -6.916    -0.367     41.78

------------------------------Saturation indices-------------------------------

	Phase               SI** log IAP   log K(303 K,   1 atm)

	Arcanite          0.00     -1.82   -1.82  K2SO4
	H2O(g)           -1.40     -0.02    1.38  H2O
	Misenite        -45.09    -55.89  -10.81  K8H6(SO4)7
	Sylvite          -1.25     -0.30    0.95  KCl

**For a gas, SI = log10(fugacity). For ideal gases, fugacity = pressure / 1 atm.
For a Peng-Robinson gas, fugacity = pressure * phi / 1 atm

Reaction step 3.

Using solution 1.	
Using pure phase assemblage 1.	
Using temperature 2.	
Using reaction 1.	

Reaction 1.	

	  1.000e+00 moles of the following reaction have been added:

	                 Relative
	Reactant            moles

	K2SO4               -1.00000
	KCl                  1.00000

	                 Relative
	Element             moles
	Cl                   1.00000
	K                   -1.00000
	O                   -4.00000
	S                   -1.00000

-------------------------------Phase assemblage--------------------------------

                                                      Moles in assemblage
Phase               SI  log IAP  log K(T, P)   Initial       Final       Delta

Arcanite          0.00    -1.82     -1.82    1.000e+01   9.760e+00  -2.400e-01
Sylvite          -0.78     0.18      0.95    0.000e+00           0   0.000e+00

-----------------------------Solution composition------------------------------

	Elements           Molality       Moles

	Cl                2.000e+00   2.000e+00
	K                 2.480e+00   2.480e+00
	S                 2.400e-01   2.400e-01

----------------------------Description of solution----------------------------

                                       pH  =   7.131      Charge balance
                                       pe  =   4.000      Adjusted to redox equilibrium
       Specific Conductance (uS/cm, 30 oC) = 142153
                          Density (g/cm3)  =   1.10705
                               Volume (L)  =   1.08965
                        Activity of water  =   0.928
                           Ionic strength  =   2.720e+00
                       Mass of water (kg)  =   1.000e+00
                 Total alkalinity (eq/kg)  =   6.630e-15
                    Total carbon (mol/kg)  =   0.000e+00
                       Total CO2 (mol/kg)  =   0.000e+00
                      Temperature (deg C)  =  30.00
                  Electrical balance (eq)  =   4.818e-09
 Percent error, 100*(Cat-|An|)/(Cat+|An|)  =   0.00
                               Iterations  =  14
                         Gamma iterations  =   4
                      Osmotic coefficient  =   0.88321
                         Density of water  =   0.99564
                                  Total H  = 1.110124e+02
                                  Total O  = 5.646621e+01

----------------------------Distribution of species----------------------------

                                                    MacInnes  MacInnes
                                MacInnes       Log       Log       Log    mole V
   Species          Molality    Activity  Molality  Activity     Gamma   cm3/mol

   OH-             2.582e-07   1.841e-07    -6.588    -6.735    -0.147      0.61
   H+              7.715e-08   7.398e-08    -7.113    -7.131    -0.018      0.00
   H2O             5.551e+01   9.276e-01     1.744    -0.033     0.000     18.09
Cl            2.000e+00
   Cl-             2.000e+00   1.147e+00     0.301     0.060    -0.241     19.62
K             2.480e+00
   K+              2.480e+00   1.311e+00     0.394     0.118    -0.277     10.76
S(6)          2.400e-01
   SO4-2           2.400e-01   8.899e-03    -0.620    -2.051    -1.431     22.79
   HSO4-           1.810e-07   7.216e-08    -6.742    -7.142    -0.399     41.90

------------------------------Saturation indices-------------------------------

	Phase               SI** log IAP   log K(303 K,   1 atm)

	Arcanite          0.00     -1.82   -1.82  K2SO4
	H2O(g)           -1.41     -0.03    1.38  H2O
	Misenite        -45.39    -56.20  -10.81  K8H6(SO4)7
	Sylvite          -0.78      0.18    0.95  KCl

**For a gas, SI = log10(fugacity). For ideal gases, fugacity = pressure / 1 atm.
For a Peng-Robinson gas, fugacity = pressure * phi / 1 atm

Reaction step 4.

Using solution 1.	
Using pure phase assemblage 1.	
Using temperature 2.	
Using reaction 1.	

Reaction 1.	

	  1.000e+00 moles of the following reaction have been added:

	                 Relative
	Reactant            moles

	K2SO4               -1.00000
	KCl                  1.00000

	                 Relative
	Element             moles
	Cl                   1.00000
	K                   -1.00000
	O                   -4.00000
	S                   -1.00000

-------------------------------Phase assemblage--------------------------------

                                                      Moles in assemblage
Phase               SI  log IAP  log K(T, P)   Initial       Final       Delta

Arcanite         -0.00    -1.82     -1.82    9.000e+00   8.838e+00  -1.615e-01
Sylvite          -0.45     0.50      0.95    0.000e+00           0   0.000e+00

-----------------------------Solution composition------------------------------

	Elements           Molality       Moles

	Cl                3.000e+00   3.000e+00
	K                 3.323e+00   3.323e+00
	S                 1.615e-01   1.615e-01

----------------------------Description of solution----------------------------

                                       pH  =   7.045      Charge balance
                                       pe  =   4.000      Adjusted to redox equilibrium
       Specific Conductance (uS/cm, 30 oC) = 182337
                          Density (g/cm3)  =   1.13344
                               Volume (L)  =   1.11355
                        Activity of water  =   0.897
                           Ionic strength  =   3.485e+00
                       Mass of water (kg)  =   1.000e+00
                 Total alkalinity (eq/kg)  =   7.559e-15
                    Total carbon (mol/kg)  =   0.000e+00
                       Total CO2 (mol/kg)  =   0.000e+00
                      Temperature (deg C)  =  30.00
                  Electrical balance (eq)  =   4.832e-09
 Percent error, 100*(Cat-|An|)/(Cat+|An|)  =   0.00
                               Iterations  =  14
                         Gamma iterations  =   4
                      Osmotic coefficient  =   0.92753
                         Density of water  =   0.99564
                                  Total H  = 1.110124e+02
                                  Total O  = 5.615231e+01

----------------------------Distribution of species----------------------------

                                                    MacInnes  MacInnes
                                MacInnes       Log       Log       Log    mole V
   Species          Molality    Activity  Molality  Activity     Gamma   cm3/mol

   OH-             1.942e-07   1.459e-07    -6.712    -6.836    -0.124      1.66
   H+              7.114e-08   9.026e-08    -7.148    -7.045     0.103      0.00
   H2O             5.551e+01   8.973e-01     1.744    -0.047     0.000     18.09
Cl            3.000e+00
   Cl-             3.000e+00   1.733e+00     0.477     0.239    -0.238     19.78
K             3.323e+00
   K+              3.323e+00   1.829e+00     0.522     0.262    -0.259     11.09
S(6)          1.615e-01
   SO4-2           1.615e-01   4.572e-03    -0.792    -2.340    -1.548     23.84
   HSO4-           1.230e-07   4.523e-08    -6.910    -7.345    -0.435     42.04

------------------------------Saturation indices-------------------------------

	Phase               SI** log IAP   log K(303 K,   1 atm)

	Arcanite         -0.00     -1.82   -1.82  K2SO4
	H2O(g)           -1.42     -0.05    1.38  H2O
	Misenite        -45.74    -56.55  -10.81  K8H6(SO4)7
	Sylvite          -0.45      0.50    0.95  KCl

**For a gas, SI = log10(fugacity). For ideal gases, fugacity = pressure / 1 atm.
For a Peng-Robinson gas, fugacity = pressure * phi / 1 atm

Reaction step 5.

Using solution 1.	
Using pure phase assemblage 1.	
Using temperature 2.	
Using reaction 1.	

Reaction 1.	

	  1.000e+00 moles of the following reaction have been added:

	                 Relative
	Reactant            moles

	K2SO4               -1.00000
	KCl                  1.00000

	                 Relative
	Element             moles
	Cl                   1.00000
	K                   -1.00000
	O                   -4.00000
	S                   -1.00000

-------------------------------Phase assemblage--------------------------------

                                                      Moles in assemblage
Phase               SI  log IAP  log K(T, P)   Initial       Final       Delta

Arcanite          0.00    -1.82     -1.82    8.000e+00   7.886e+00  -1.134e-01
Sylvite          -0.20     0.75      0.95    0.000e+00           0   0.000e+00

-----------------------------Solution composition------------------------------

	Elements           Molality       Moles

	Cl                4.000e+00   4.000e+00
	K                 4.227e+00   4.227e+00
	S                 1.134e-01   1.134e-01

----------------------------Description of solution----------------------------

                                       pH  =   6.983      Charge balance
                                       pe  =   4.000      Adjusted to redox equilibrium
       Specific Conductance (uS/cm, 30 oC) = 221022
                          Density (g/cm3)  =   1.16085
                               Volume (L)  =   1.14161
                        Activity of water  =   0.865
                           Ionic strength  =   4.340e+00
                       Mass of water (kg)  =   1.000e+00
                 Total alkalinity (eq/kg)  =   7.914e-15
                    Total carbon (mol/kg)  =   0.000e+00
                       Total CO2 (mol/kg)  =   0.000e+00
                      Temperature (deg C)  =  30.00
                  Electrical balance (eq)  =   4.834e-09
 Percent error, 100*(Cat-|An|)/(Cat+|An|)  =   0.00
                               Iterations  =  14
                         Gamma iterations  =   4
                      Osmotic coefficient  =   0.96425
                         Density of water  =   0.99564
                                  Total H  = 1.110124e+02
                                  Total O  = 5.595998e+01

----------------------------Distribution of species----------------------------

                                                    MacInnes  MacInnes
                                MacInnes       Log       Log       Log    mole V
   Species          Molality    Activity  Molality  Activity     Gamma   cm3/mol

   OH-             1.522e-07   1.222e-07    -6.818    -6.913    -0.095      2.81
   H+              6.433e-08   1.039e-07    -7.192    -6.983     0.208      0.00
   H2O             5.551e+01   8.651e-01     1.744    -0.063     0.000     18.09
Cl            4.000e+00
   Cl-             4.000e+00   2.352e+00     0.602     0.372    -0.231     19.94
K             4.227e+00
   K+              4.227e+00   2.412e+00     0.626     0.382    -0.244     11.45
S(6)          1.134e-01
   SO4-2           1.134e-01   2.629e-03    -0.945    -2.580    -1.635     24.87
   HSO4-           8.784e-08   2.995e-08    -7.056    -7.524    -0.467     42.17

------------------------------Saturation indices-------------------------------

	Phase               SI** log IAP   log K(303 K,   1 atm)

	Arcanite          0.00     -1.82   -1.82  K2SO4
	H2O(g)           -1.44     -0.06    1.38  H2O
	Misenite        -46.10    -56.90  -10.81  K8H6(SO4)7
	Sylvite          -0.20      0.75    0.95  KCl

**For a gas, SI = log10(fugacity). For ideal gases, fugacity = pressure / 1 atm.
For a Peng-Robinson gas, fugacity = pressure * phi / 1 atm

Reaction step 6.

Using solution 1.	
Using pure phase assemblage 1.	
Using temperature 2.	
Using reaction 1.	

Reaction 1.	

	  1.000e+00 moles of the following reaction have been added:

	                 Relative
	Reactant            moles

	K2SO4               -1.00000
	KCl                  1.00000

	                 Relative
	Element             moles
	Cl                   1.00000
	K                   -1.00000
	O                   -4.00000
	S                   -1.00000

-------------------------------Phase assemblage--------------------------------

                                                      Moles in assemblage
Phase               SI  log IAP  log K(T, P)   Initial       Final       Delta

Arcanite         -0.00    -1.82     -1.82    7.000e+00   6.917e+00  -8.297e-02
Sylvite           0.00     0.95      0.95    0.000e+00   6.238e-02   6.238e-02

-----------------------------Solution composition------------------------------

	Elements           Molality       Moles

	Cl                4.938e+00   4.938e+00
	K                 5.104e+00   5.104e+00
	S                 8.297e-02   8.297e-02

----------------------------Description of solution----------------------------

                                       pH  =   6.941      Charge balance
                                       pe  =   4.000      Adjusted to redox equilibrium
       Specific Conductance (uS/cm, 30 oC) = 259230
                          Density (g/cm3)  =   1.18585
                               Volume (L)  =   1.17037
                        Activity of water  =   0.834
                           Ionic strength  =   5.187e+00
                       Mass of water (kg)  =   1.000e+00
                 Total alkalinity (eq/kg)  =   7.365e-15
                    Total carbon (mol/kg)  =   0.000e+00
                       Total CO2 (mol/kg)  =   0.000e+00
                      Temperature (deg C)  =  30.00
                  Electrical balance (eq)  =   5.479e-09
 Percent error, 100*(Cat-|An|)/(Cat+|An|)  =   0.00
                               Iterations  =  14
                         Gamma iterations  =   4
                      Osmotic coefficient  =   0.99594
                         Density of water  =   0.99564
                                  Total H  = 1.110124e+02
                                  Total O  = 5.583811e+01

----------------------------Distribution of species----------------------------

                                                    MacInnes  MacInnes
                                MacInnes       Log       Log       Log    mole V
   Species          Molality    Activity  Molality  Activity     Gamma   cm3/mol

   OH-             1.240e-07   1.068e-07    -6.907    -6.972    -0.065      3.92
   H+              5.789e-08   1.147e-07    -7.237    -6.941     0.297      0.00
   H2O             5.551e+01   8.339e-01     1.744    -0.079     0.000     18.09
Cl            4.938e+00
   Cl-             4.938e+00   2.975e+00     0.694     0.473    -0.220     20.08
K             5.104e+00
   K+              5.104e+00   3.014e+00     0.708     0.479    -0.229     11.80
S(6)          8.297e-02
   SO4-2           8.297e-02   1.683e-03    -1.081    -2.774    -1.693     25.80
   HSO4-           6.610e-08   2.115e-08    -7.180    -7.675    -0.495     42.28

------------------------------Saturation indices-------------------------------

	Phase               SI** log IAP   log K(303 K,   1 atm)

	Arcanite         -0.00     -1.82   -1.82  K2SO4
	H2O(g)           -1.46     -0.08    1.38  H2O
	Misenite        -46.42    -57.23  -10.81  K8H6(SO4)7
	Sylvite           0.00      0.95    0.95  KCl

**For a gas, SI = log10(fugacity). For ideal gases, fugacity = pressure / 1 atm.
For a Peng-Robinson gas, fugacity = pressure * phi / 1 atm

Reaction step 7.

Using solution 1.	
Using pure phase assemblage 1.	
Using temperature 2.	
Using reaction 1.	

Reaction 1.	

	  1.000e+00 moles of the following reaction have been added:

	                 Relative
	Reactant            moles

	K2SO4               -1.00000
	KCl                  1.00000

	                 Relative
	Element             moles
	Cl                   1.00000
	K                   -1.00000
	O                   -4.00000
	S                   -1.00000

-------------------------------Phase assemblage--------------------------------

                                                      Moles in assemblage
Phase               SI  log IAP  log K(T, P)   Initial       Final       Delta

Arcanite          0.00    -1.82     -1.82    6.000e+00   5.917e+00  -8.297e-02
Sylvite           0.00     0.95      0.95    6.238e-02   1.062e+00   1.000e+00

-----------------------------Solution composition------------------------------

	Elements           Molality       Moles

	Cl                4.938e+00   4.938e+00
	K                 5.104e+00   5.104e+00
	S                 8.297e-02   8.297e-02

----------------------------Description of solution----------------------------

                                       pH  =   6.941      Charge balance
                                       pe  =   4.000      Adjusted to redox equilibrium
       Specific Conductance (uS/cm, 30 oC) = 259230
                          Density (g/cm3)  =   1.18585
                               Volume (L)  =   1.17037
                        Activity of water  =   0.834
                           Ionic strength  =   5.187e+00
                       Mass of water (kg)  =   1.000e+00
                 Total alkalinity (eq/kg)  =   1.166e-14
                    Total carbon (mol/kg)  =   0.000e+00
                       Total CO2 (mol/kg)  =   0.000e+00
                      Temperature (deg C)  =  30.00
                  Electrical balance (eq)  =   5.605e-10
 Percent error, 100*(Cat-|An|)/(Cat+|An|)  =   0.00
                               Iterations  =   7
                         Gamma iterations  =   1
                      Osmotic coefficient  =   0.99594
                         Density of water  =   0.99564
                                  Total H  = 1.110124e+02
                                  Total O  = 5.583811e+01

----------------------------Distribution of species----------------------------

                                                    MacInnes  MacInnes
                                MacInnes       Log       Log       Log    mole V
   Species          Molality    Activity  Molality  Activity     Gamma   cm3/mol

   OH-             1.240e-07   1.068e-07    -6.907    -6.972    -0.065      3.92
   H+              5.789e-08   1.147e-07    -7.237    -6.941     0.297      0.00
   H2O             5.551e+01   8.339e-01     1.744    -0.079     0.000     18.09
Cl            4.938e+00
   Cl-             4.938e+00   2.975e+00     0.694     0.473    -0.220     20.08
K             5.104e+00
   K+              5.104e+00   3.014e+00     0.708     0.479    -0.229     11.80
S(6)          8.297e-02
   SO4-2           8.297e-02   1.683e-03    -1.081    -2.774    -1.693     25.80
   HSO4-           6.610e-08   2.115e-08    -7.180    -7.675    -0.495     42.28

------------------------------Saturation indices-------------------------------

	Phase               SI** log IAP   log K(303 K,   1 atm)

	Arcanite          0.00     -1.82   -1.82  K2SO4
	H2O(g)           -1.46     -0.08    1.38  H2O
	Misenite        -46.42    -57.23  -10.81  K8H6(SO4)7
	Sylvite           0.00      0.95    0.95  KCl

[...]
K             7.323e+00
   K+              7.323e+00   4.400e+00     0.865     0.643    -0.221     12.79
S(6)          1.613e-01
   SO4-2           1.613e-01   1.790e-03    -0.792    -2.747    -1.955     26.41
   HSO4-           2.183e-06   4.288e-07    -5.661    -6.368    -0.707     44.71

------------------------------Saturation indices-------------------------------

	Phase               SI** log IAP   log K(373 K,   1 atm)

	Arcanite          0.00     -1.46   -1.46  K2SO4
	H2O(g)           -0.12     -0.12    0.00  H2O
	Misenite        -42.87    -53.68  -10.81  K8H6(SO4)7
	Sylvite          -0.05      1.28    1.33  KCl

**For a gas, SI = log10(fugacity). For ideal gases, fugacity = pressure / 1 atm.
For a Peng-Robinson gas, fugacity = pressure * phi / 1 atm

Reaction step 9.

Using solution 1.	
Using pure phase assemblage 1.	
Using temperature 2.	
Using reaction 1.	

Reaction 1.	

	  1.000e+00 moles of the following reaction have been added:

	                 Relative
	Reactant            moles

	K2SO4               -1.00000
	KCl                  1.00000

	                 Relative
	Element             moles
	Cl                   1.00000
	K                   -1.00000
	O                   -4.00000
	S                   -1.00000

-------------------------------Phase assemblage--------------------------------

                                                      Moles in assemblage
Phase               SI  log IAP  log K(T, P)   Initial       Final       Delta

Arcanite         -0.00    -1.46     -1.46    4.000e+00   3.849e+00  -1.507e-01
Sylvite           0.00     1.33      1.33    0.000e+00   6.520e-01   6.520e-01

-----------------------------Solution composition------------------------------

	Elements           Molality       Moles

	Cl                7.348e+00   7.348e+00
	K                 7.649e+00   7.649e+00
	S                 1.507e-01   1.507e-01

----------------------------Description of solution----------------------------

                                       pH  =   6.589      Charge balance
                                       pe  =   4.000      Adjusted to redox equilibrium
       Specific Conductance (uS/cm, 100 oC) = 920029
                          Density (g/cm3)  =   1.21592
                               Volume (L)  =   1.30247
                        Activity of water  =   0.750
                           Ionic strength  =   7.800e+00
                       Mass of water (kg)  =   1.000e+00
                 Total alkalinity (eq/kg)  =   2.406e-13
                    Total carbon (mol/kg)  =   0.000e+00
                       Total CO2 (mol/kg)  =   0.000e+00
                      Temperature (deg C)  = 100.00
                  Electrical balance (eq)  =   4.892e-08
 Percent error, 100*(Cat-|An|)/(Cat+|An|)  =   0.00
                               Iterations  =  10
                         Gamma iterations  =   3
                      Osmotic coefficient  =   1.05190
                         Density of water  =   0.95835
                                  Total H  = 1.110124e+02
                                  Total O  = 5.610882e+01

----------------------------Distribution of species----------------------------

                                                    MacInnes  MacInnes
                                MacInnes       Log       Log       Log    mole V
   Species          Molality    Activity  Molality  Activity     Gamma   cm3/mol

   OH-             2.160e-06   1.683e-06    -5.666    -5.774    -0.108      8.16
   H+              1.031e-07   2.577e-07    -6.987    -6.589     0.398      0.00
   H2O             5.551e+01   7.505e-01     1.744    -0.125     0.000     18.80
Cl            7.348e+00
   Cl-             7.348e+00   4.603e+00     0.866     0.663    -0.203     20.23
K             7.649e+00
   K+              7.649e+00   4.647e+00     0.884     0.667    -0.216     12.86
S(6)          1.507e-01
   SO4-2           1.506e-01   1.605e-03    -0.822    -2.795    -1.972     26.73
   HSO4-           2.057e-06   3.939e-07    -5.687    -6.405    -0.718     44.76

------------------------------Saturation indices-------------------------------

	Phase               SI** log IAP   log K(373 K,   1 atm)

	Arcanite         -0.00     -1.46   -1.46  K2SO4
	H2O(g)           -0.13     -0.12    0.00  H2O
	Misenite        -42.95    -53.76  -10.81  K8H6(SO4)7
	Sylvite           0.00      1.33    1.33  KCl

**For a gas, SI = log10(fugacity). For ideal gases, fugacity = pressure / 1 atm.
For a Peng-Robinson gas, fugacity = pressure * phi / 1 atm

Reaction step 10.

Using solution 1.	
Using pure phase assemblage 1.	
Using temperature 2.	
Using reaction 1.	

Reaction 1.	

	  1.000e+00 moles of the following reaction have been added:

	                 Relative
	Reactant            moles

	K2SO4               -1.00000
	KCl                  1.00000

	                 Relative
	Element             moles
	Cl                   1.00000
	K                   -1.00000
	O                   -4.00000
	S                   -1.00000

-------------------------------Phase assemblage--------------------------------

                                                      Moles in assemblage
Phase               SI  log IAP  log K(T, P)   Initial       Final       Delta

Arcanite         -0.00    -1.46     -1.46    3.000e+00   2.849e+00  -1.507e-01
Sylvite           0.00     1.33      1.33    6.520e-01   1.652e+00   1.000e+00

-----------------------------Solution composition------------------------------

	Elements           Molality       Moles

	Cl                7.348e+00   7.348e+00
	K                 7.649e+00   7.649e+00
	S                 1.507e-01   1.507e-01

----------------------------Description of solution----------------------------

                                       pH  =   6.589      Charge balance
                                       pe  =   4.000      Adjusted to redox equilibrium
       Specific Conductance (uS/cm, 100 oC) = 920029
                          Density (g/cm3)  =   1.21592
                               Volume (L)  =   1.30247
                        Activity of water  =   0.750
                           Ionic strength  =   7.800e+00
                       Mass of water (kg)  =   1.000e+00
                 Total alkalinity (eq/kg)  =  -3.590e-12
                    Total carbon (mol/kg)  =   0.000e+00
                       Total CO2 (mol/kg)  =   0.000e+00
                      Temperature (deg C)  = 100.00
                  Electrical balance (eq)  =   3.123e-08
 Percent error, 100*(Cat-|An|)/(Cat+|An|)  =   0.00
                               Iterations  =   7
                         Gamma iterations  =   1
                      Osmotic coefficient  =   1.05190
                         Density of water  =   0.95835
                                  Total H  = 1.110124e+02
                                  Total O  = 5.610882e+01

----------------------------Distribution of species----------------------------

                                                    MacInnes  MacInnes
                                MacInnes       Log       Log       Log    mole V
   Species          Molality    Activity  Molality  Activity     Gamma   cm3/mol

   OH-             2.160e-06   1.683e-06    -5.666    -5.774    -0.108      8.16
   H+              1.031e-07   2.577e-07    -6.987    -6.589     0.398      0.00
   H2O             5.551e+01   7.505e-01     1.744    -0.125     0.000     18.80
Cl            7.348e+00
   Cl-             7.348e+00   4.603e+00     0.866     0.663    -0.203     20.23
K             7.649e+00
   K+              7.649e+00   4.647e+00     0.884     0.667    -0.216     12.86
S(6)          1.507e-01
   SO4-2           1.506e-01   1.605e-03    -0.822    -2.795    -1.972     26.73
   HSO4-           2.057e-06   3.939e-07    -5.687    -6.405    -0.718     44.76

------------------------------Saturation indices-------------------------------

	Phase               SI** log IAP   log K(373 K,   1 atm)

	Arcanite         -0.00     -1.46   -1.46  K2SO4
	H2O(g)           -0.13     -0.12    0.00  H2O
	Misenite        -42.95    -53.76  -10.81  K8H6(SO4)7
	Sylvite           0.00      1.33    1.33  KCl

**For a gas, SI = log10(fugacity). For ideal gases, fugacity = pressure / 1 atm.
For a Peng-Robinson gas, fugacity = pressure * phi / 1 atm

Reaction step 11.

Using solution 1.	
Using pure phase assemblage 1.	
Using temperature 2.	
Using reaction 1.	

Reaction 1.	

	  1.000e+00 moles of the following reaction have been added:

	                 Relative
	Reactant            moles

	K2SO4               -1.00000
	KCl                  1.00000

	                 Relative
	Element             moles
	Cl                   1.00000
	K                   -1.00000
	O                   -4.00000
	S                   -1.00000

-------------------------------Phase assemblage--------------------------------

                                                      Moles in assemblage
Phase               SI  log IAP  log K(T, P)   Initial       Final       Delta

Arcanite         -0.00    -1.46     -1.46    2.000e+00   1.849e+00  -1.507e-01
Sylvite           0.00     1.33      1.33    1.652e+00   2.652e+00   1.000e+00

-----------------------------Solution composition------------------------------

	Elements           Molality       Moles

	Cl                7.348e+00   7.348e+00
	K                 7.649e+00   7.649e+00
	S                 1.507e-01   1.507e-01

----------------------------Description of solution----------------------------

                                       pH  =   6.589      Charge balance
                                       pe  =   4.000      Adjusted to redox equilibrium
       Specific Conductance (uS/cm, 100 oC) = 920029
                          Density (g/cm3)  =   1.21592
                               Volume (L)  =   1.30247
                        Activity of water  =   0.750
                           Ionic strength  =   7.800e+00
                       Mass of water (kg)  =   1.000e+00
                 Total alkalinity (eq/kg)  =  -7.415e-12
                    Total carbon (mol/kg)  =   0.000e+00
                       Total CO2 (mol/kg)  =   0.000e+00
                      Temperature (deg C)  = 100.00
                  Electrical balance (eq)  =   1.353e-08
 Percent error, 100*(Cat-|An|)/(Cat+|An|)  =   0.00
                               Iterations  =   7
                         Gamma iterations  =   1
                      Osmotic coefficient  =   1.05190
                         Density of water  =   0.95835
                                  Total H  = 1.110124e+02
                                  Total O  = 5.610882e+01

----------------------------Distribution of species----------------------------

                                                    MacInnes  MacInnes
                                MacInnes       Log       Log       Log    mole V
   Species          Molality    Activity  Molality  Activity     Gamma   cm3/mol

   OH-             2.160e-06   1.683e-06    -5.666    -5.774    -0.108      8.16
   H+              1.031e-07   2.577e-07    -6.987    -6.589     0.398      0.00
   H2O             5.551e+01   7.505e-01     1.744    -0.125     0.000     18.80
Cl            7.348e+00
   Cl-             7.348e+00   4.603e+00     0.866     0.663    -0.203     20.23
K             7.649e+00
   K+              7.649e+00   4.647e+00     0.884     0.667    -0.216     12.86
S(6)          1.507e-01
   SO4-2           1.506e-01   1.605e-03    -0.822    -2.795    -1.972     26.73
   HSO4-           2.057e-06   3.939e-07    -5.687    -6.405    -0.718     44.76

------------------------------Saturation indices-------------------------------

	Phase               SI** log IAP   log K(373 K,   1 atm)

	Arcanite         -0.00     -1.46   -1.46  K2SO4
	H2O(g)           -0.13     -0.12    0.00  H2O
	Misenite        -42.95    -53.76  -10.81  K8H6(SO4)7
	Sylvite           0.00      1.33    1.33  KCl

**For a gas, SI = log10(fugacity). For ideal gases, fugacity = pressure / 1 atm.
For a Peng-Robinson gas, fugacity = pressure * phi / 1 atm

Reaction step 12.

Using solution 1.	
Using pure phase assemblage 1.	
Using temperature 2.	
Using reaction 1.	

Reaction 1.	

	  1.000e+00 moles of the following reaction have been added:

	                 Relative
	Reactant            moles

	K2SO4               -1.00000
	KCl                  1.00000

	                 Relative
	Element             moles
	Cl                   1.00000
	K                   -1.00000
	O                   -4.00000
	S                   -1.00000

-------------------------------Phase assemblage--------------------------------

                                                      Moles in assemblage
Phase               SI  log IAP  log K(T, P)   Initial       Final       Delta

Arcanite          0.00    -1.46     -1.46    9.999e-01   8.492e-01  -1.507e-01
Sylvite           0.00     1.33      1.33    2.652e+00   3.652e+00   1.000e+00

-----------------------------Solution composition------------------------------

	Elements           Molality       Moles

	Cl                7.348e+00   7.348e+00
	K                 7.649e+00   7.649e+00
	S                 1.507e-01   1.507e-01

----------------------------Description of solution----------------------------

                                       pH  =   6.589      Charge balance
                                       pe  =   4.000      Adjusted to redox equilibrium
       Specific Conductance (uS/cm, 100 oC) = 920029
                          Density (g/cm3)  =   1.21592
                               Volume (L)  =   1.30247
                        Activity of water  =   0.750
                           Ionic strength  =   7.800e+00
                       Mass of water (kg)  =   1.000e+00
                 Total alkalinity (eq/kg)  =  -1.124e-11
                    Total carbon (mol/kg)  =   0.000e+00
                       Total CO2 (mol/kg)  =   0.000e+00
                      Temperature (deg C)  = 100.00
                  Electrical balance (eq)  =  -4.161e-09
 Percent error, 100*(Cat-|An|)/(Cat+|An|)  =  -0.00
                               Iterations  =   7
                         Gamma iterations  =   1
                      Osmotic coefficient  =   1.05190
                         Density of water  =   0.95835
                                  Total H  = 1.110124e+02
                                  Total O  = 5.610882e+01

----------------------------Distribution of species----------------------------

                                                    MacInnes  MacInnes
                                MacInnes       Log       Log       Log    mole V
   Species          Molality    Activity  Molality  Activity     Gamma   cm3/mol

   OH-             2.160e-06   1.683e-06    -5.666    -5.774    -0.108      8.16
   H+              1.031e-07   2.577e-07    -6.987    -6.589     0.398      0.00
   H2O             5.551e+01   7.505e-01     1.744    -0.125     0.000     18.80
Cl            7.348e+00
   Cl-             7.348e+00   4.603e+00     0.866     0.663    -0.203     20.23
K             7.649e+00
   K+              7.649e+00   4.647e+00     0.884     0.667    -0.216     12.86
S(6)          1.507e-01
   SO4-2           1.506e-01   1.605e-03    -0.822    -2.795    -1.972     26.73
   HSO4-           2.057e-06   3.939e-07    -5.687    -6.405    -0.718     44.76

------------------------------Saturation indices-------------------------------

	Phase               SI** log IAP   log K(373 K,   1 atm)

	Arcanite          0.00     -1.46   -1.46  K2SO4
	H2O(g)           -0.13     -0.12    0.00  H2O
	Misenite        -42.95    -53.76  -10.81  K8H6(SO4)7
	Sylvite           0.00      1.33    1.33  KCl

**For a gas, SI = log10(fugacity). For ideal gases, fugacity = pressure / 1 atm.
For a Peng-Robinson gas, fugacity = pressure * phi / 1 atm

Reaction step 13.

Using solution 1.	
Using pure phase assemblage 1.	
Using temperature 2.	
Using reaction 1.	

Reaction 1.	

	  9.999e-01 moles of the following reaction have been added:

	                 Relative
	Reactant            moles

	K2SO4               -1.00000
	KCl                  1.00000

	                 Relative
	Element             moles
	Cl                   1.00000
	K                   -1.00000
	O                   -4.00000
	S                   -1.00000

-------------------------------Phase assemblage--------------------------------

                                                      Moles in assemblage
Phase               SI  log IAP  log K(T, P)   Initial       Final       Delta

Arcanite         -4.19    -5.65     -1.46    1.000e-05           0  -1.000e-05
Sylvite           0.00     1.33      1.33    3.652e+00   4.555e+00   9.032e-01

-----------------------------Solution composition------------------------------

	Elements           Molality       Moles

	Cl                7.445e+00   7.445e+00
	K                 7.445e+00   7.445e+00
	S                 1.000e-05   1.000e-05

----------------------------Description of solution----------------------------

                                       pH  =   5.971      Charge balance
                                       pe  =   4.000      Adjusted to redox equilibrium
       Specific Conductance (uS/cm, 100 oC) = 959892
                          Density (g/cm3)  =   1.20657
                               Volume (L)  =   1.28879
                        Activity of water  =   0.753
                           Ionic strength  =   7.445e+00
                       Mass of water (kg)  =   1.000e+00
                 Total alkalinity (eq/kg)  =  -1.124e-11
                    Total carbon (mol/kg)  =   0.000e+00
                       Total CO2 (mol/kg)  =   0.000e+00
                      Temperature (deg C)  = 100.00
                  Electrical balance (eq)  =  -5.075e-09
 Percent error, 100*(Cat-|An|)/(Cat+|An|)  =  -0.00
                               Iterations  =  13
                         Gamma iterations  =   3
                      Osmotic coefficient  =   1.05988
                         Density of water  =   0.95835
                                  Total H  = 1.110124e+02
                                  Total O  = 5.550626e+01

----------------------------Distribution of species----------------------------

                                                    MacInnes  MacInnes
                                MacInnes       Log       Log       Log    mole V
   Species          Molality    Activity  Molality  Activity     Gamma   cm3/mol

   OH-             5.167e-07   4.064e-07    -6.287    -6.391    -0.104      7.65
   H+              5.162e-07   1.070e-06    -6.287    -5.971     0.316      0.00
   H2O             5.551e+01   7.525e-01     1.744    -0.123     0.000     18.80
Cl            7.445e+00
   Cl-             7.445e+00   4.625e+00     0.872     0.665    -0.207     20.17
K             7.445e+00
   K+              7.445e+00   4.625e+00     0.872     0.665    -0.207     12.78
S(6)          1.000e-05
   SO4-2           1.000e-05   1.040e-07    -5.000    -6.983    -1.983     26.38
   HSO4-           5.040e-10   1.060e-10    -9.298    -9.975    -0.677     44.70

------------------------------Saturation indices-------------------------------

	Phase               SI** log IAP   log K(373 K,   1 atm)

	Arcanite         -4.19     -5.65   -1.46  K2SO4
	H2O(g)           -0.13     -0.12    0.00  H2O
	Misenite        -68.58    -79.38  -10.81  K8H6(SO4)7
	Sylvite           0.00      1.33    1.33  KCl

**For a gas, SI = log10(fugacity). For ideal gases, fugacity = pressure / 1 atm.
For a Peng-Robinson gas, fugacity = pressure * phi / 1 atm

------------------
End of simulation.
------------------

------------------------------------
Reading input data for simulation 5.
------------------------------------

------------------------------
End of Run after 0.11 Seconds.
------------------------------

