   Input file: kinetic_rates_plus
  Output file: kinetic_rates_plus.out
Database file: ..\database\phreeqc.dat

------------------
Reading data base.
------------------

	SOLUTION_MASTER_SPECIES
	SOLUTION_SPECIES
	PHASES
	EXCHANGE_MASTER_SPECIES
	EXCHANGE_SPECIES
	SURFACE_MASTER_SPECIES
	SURFACE_SPECIES
	CALCULATE_VALUES
	RATES
	END
------------------------------------
Reading input data for simulation 1.
------------------------------------

	database ..\database\phreeqc.dat
	PRINT
	 reset false
WARNING: USER_PUNCH: Headings count does not match number of calls to PUNCH.


	Reading data from kinetic_rates_plus.inc ...

	Reading data from kinetic_rates_plus.inc ...

	Reading data from kinetic_rates_plus.inc ...

	Reading data from kinetic_rates_plus.inc ...
-------------------------------
End of Run after 1.523 Seconds.
-------------------------------

