WARNING: Database file from DATABASE keyword is used; command line argument ignored.
   Input file: krest
  Output file: krest.out
Database file: ../database/phreeqc.dat

------------------
Reading data base.
------------------

	SOLUTION_MASTER_SPECIES
	SOLUTION_SPECIES
	PHASES
	EXCHANGE_MASTER_SPECIES
	EXCHANGE_SPECIES
	SURFACE_MASTER_SPECIES
	SURFACE_SPECIES
	RATES
	END
------------------------------------
Reading input data for simulation 1.
------------------------------------

	DATABASE ../database/phreeqc.dat
	SURFACE_MASTER_SPECIES
		Solid	Solid
	SURFACE_SPECIES
		Solid = Solid
		log_k 0
		Solid + [224Ra] = Solid[224Ra]
		log_k	-98.7	# log(Kd) - 100
	SOLUTION_MASTER_SPECIES
		[224Ra]	[224Ra]	0	224	224
	SOLUTION_SPECIES
		[224Ra] = [224Ra]
		log_k	0.0
	RATES
		Add_Ra
	start
	10 rate = 1 / (24*3600)   # 1/day
	20 moles = parm(1) * rate * TIME
	30 save moles
	end
		Decay_Ra
	start
	10 k = .189 / (24*3600)  # 3.66 day half life
	20 total_224Ra = TOT("[224Ra]") + MOL("Solid[224Ra]")
	30 rate = -k*total_224Ra
	40 moles = rate*TIME
	50 save moles
	end
	END
------------------
End of simulation.
------------------

------------------------------------
Reading input data for simulation 2.
------------------------------------

	SOLUTION 1-45
		pH 7
		C	1
		Ca	1	charge
	END
-------------------------------------------
Beginning of initial solution calculations.
-------------------------------------------

Initial solution 1.	

-----------------------------Solution composition------------------------------

	Elements           Molality       Moles

	C                 1.000e-03   1.000e-03
	Ca                4.118e-04   4.118e-04  Charge balance

----------------------------Description of solution----------------------------

                                       pH  =   7.000    
                                       pe  =   4.000    
       Specific Conductance (uS/cm, 25 oC) = 81
                          Density (g/cm3)  =   0.99710
                               Volume (L)  =   1.00303
                        Activity of water  =   1.000
                           Ionic strength  =   1.228e-03
                       Mass of water (kg)  =   1.000e+00
                 Total alkalinity (eq/kg)  =   8.236e-04
                       Total CO2 (mol/kg)  =   1.000e-03
                      Temperature (deg C)  =  25.00
                  Electrical balance (eq)  =   1.021e-11
 Percent error, 100*(Cat-|An|)/(Cat+|An|)  =   0.00
                               Iterations  =   7
                                  Total H  = 1.110133e+02
                                  Total O  = 5.550904e+01

----------------------------Distribution of species----------------------------

                                               Log       Log       Log    mole V
   Species          Molality    Activity  Molality  Activity     Gamma   cm3/mol

   OH-             1.053e-07   1.012e-07    -6.978    -6.995    -0.017     -4.10
   H+              1.038e-07   1.000e-07    -6.984    -7.000    -0.016      0.00
   H2O             5.551e+01   1.000e+00     1.744    -0.000     0.000     18.07
C(-4)         0.000e+00
   CH4             0.000e+00   0.000e+00   -67.362   -67.362     0.000     32.22
C(4)          1.000e-03
   HCO3-           8.187e-04   7.876e-04    -3.087    -3.104    -0.017     24.59
   CO2             1.770e-04   1.771e-04    -3.752    -3.752     0.000     30.26
   CaHCO3+         3.648e-06   3.510e-06    -5.438    -5.455    -0.017      9.67
   CO3-2           4.313e-07   3.693e-07    -6.365    -6.433    -0.067     -4.36
   CaCO3           2.167e-07   2.167e-07    -6.664    -6.664     0.000    -14.60
Ca            4.118e-04
   Ca+2            4.079e-04   3.493e-04    -3.389    -3.457    -0.067    -18.13
   CaHCO3+         3.648e-06   3.510e-06    -5.438    -5.455    -0.017      9.67
   CaCO3           2.167e-07   2.167e-07    -6.664    -6.664     0.000    -14.60
   CaOH+           6.029e-10   5.797e-10    -9.220    -9.237    -0.017     (0)  
H(0)          1.415e-25
   H2              7.077e-26   7.079e-26   -25.150   -25.150     0.000     28.61
O(0)          0.000e+00
   O2              0.000e+00   0.000e+00   -42.080   -42.080     0.000     30.40

------------------------------Saturation indices-------------------------------

	Phase               SI   log IAP   log K(298 K,   1 atm)

	Aragonite        -1.55     -9.89   -8.34  CaCO3
	Calcite          -1.41     -9.89   -8.48  CaCO3
	CH4(g)          -64.52    -67.36   -2.84  CH4
	CO2(g)           -2.29     -3.75   -1.46  CO2
	H2(g)           -22.05    -25.15   -3.10  H2
	H2O(g)           -1.50     -0.00    1.50  H2O
	O2(g)           -39.19    -42.08   -2.89  O2


------------------
End of simulation.
------------------

------------------------------------
Reading input data for simulation 3.
------------------------------------

	SOLUTION 46
		pH 7
		C	1
		Ca	1	charge
		[224Ra]	70e-8 mol/kgw
		Cl	1
	END
-------------------------------------------
Beginning of initial solution calculations.
-------------------------------------------

Initial solution 46.	

-----------------------------Solution composition------------------------------

	Elements           Molality       Moles

	C                 1.000e-03   1.000e-03
	Ca                9.136e-04   9.136e-04  Charge balance
	Cl                1.000e-03   1.000e-03
	[224Ra]           7.000e-07   7.000e-07

----------------------------Description of solution----------------------------

                                       pH  =   7.000    
                                       pe  =   4.000    
       Specific Conductance (uS/cm, 25 oC) = 207
                          Density (g/cm3)  =   0.99715
                               Volume (L)  =   1.00304
                        Activity of water  =   1.000
                           Ionic strength  =   2.725e-03
                       Mass of water (kg)  =   1.000e+00
                 Total alkalinity (eq/kg)  =   8.272e-04
                       Total CO2 (mol/kg)  =   1.000e-03
                      Temperature (deg C)  =  25.00
                  Electrical balance (eq)  =   8.682e-17
 Percent error, 100*(Cat-|An|)/(Cat+|An|)  =   0.00
                               Iterations  =   9
                                  Total H  = 1.110133e+02
                                  Total O  = 5.550904e+01

----------------------------Distribution of species----------------------------

                                               Log       Log       Log    mole V
   Species          Molality    Activity  Molality  Activity     Gamma   cm3/mol

   OH-             1.072e-07   1.012e-07    -6.970    -6.995    -0.025     -4.09
   H+              1.055e-07   1.000e-07    -6.977    -7.000    -0.023      0.00
   H2O             5.551e+01   1.000e+00     1.744    -0.000     0.000     18.07
C(-4)         0.000e+00
   CH4             0.000e+00   0.000e+00   -67.370   -67.369     0.000     32.22
C(4)          1.000e-03
   HCO3-           8.178e-04   7.732e-04    -3.087    -3.112    -0.024     24.62
   CO2             1.737e-04   1.739e-04    -3.760    -3.760     0.000     30.26
   CaHCO3+         7.543e-06   7.135e-06    -5.122    -5.147    -0.024      9.69
   CO3-2           4.538e-07   3.626e-07    -6.343    -6.441    -0.097     -4.29
   CaCO3           4.403e-07   4.406e-07    -6.356    -6.356     0.000    -14.60
Ca            9.136e-04
   Ca+2            9.056e-04   7.233e-04    -3.043    -3.141    -0.098    -18.07
   CaHCO3+         7.543e-06   7.135e-06    -5.122    -5.147    -0.024      9.69
   CaCO3           4.403e-07   4.406e-07    -6.356    -6.356     0.000    -14.60
   CaOH+           1.271e-09   1.200e-09    -8.896    -8.921    -0.025     (0)  
Cl            1.000e-03
   Cl-             1.000e-03   9.440e-04    -3.000    -3.025    -0.025     18.09
H(0)          1.415e-25
   H2              7.075e-26   7.079e-26   -25.150   -25.150     0.000     28.61
O(0)          0.000e+00
   O2              0.000e+00   0.000e+00   -42.080   -42.080     0.000     30.40
[224Ra]       7.000e-07
   [224Ra]         7.000e-07   7.004e-07    -6.155    -6.155     0.000     (0)  

------------------------------Saturation indices-------------------------------

	Phase               SI   log IAP   log K(298 K,   1 atm)

	Aragonite        -1.25     -9.58   -8.34  CaCO3
	Calcite          -1.10     -9.58   -8.48  CaCO3
	CH4(g)          -64.53    -67.37   -2.84  CH4
	CO2(g)           -2.30     -3.76   -1.46  CO2
	H2(g)           -22.05    -25.15   -3.10  H2
	H2O(g)           -1.50     -0.00    1.50  H2O
	O2(g)           -39.19    -42.08   -2.89  O2


------------------
End of simulation.
------------------

------------------------------------
Reading input data for simulation 4.
------------------------------------

	KINETICS 1-45
		Add_Ra
			formula	[224Ra]
			parms	1e-8
			tol	1e-10
			m	1
		Decay_Ra
			formula	[224Ra]
			tol	1e-10
			m	1
	SURFACE 1-45
		Solid 1e100 1.0 1e100	
	END
------------------
End of simulation.
------------------

------------------------------------
Reading input data for simulation 5.
------------------------------------

	TRANSPORT
		cells			45
		shifts			10
		time_step		72000	# 1/2.4 cm/day * 2 cm * 24*3600 sec/day
		flow_direction		backward
		boundary_conditions	flux	flux
		length			.02
		disp			.005
		diffusion_coefficient	1e-9
	SELECTED_OUTPUT
WARNING: Cell-lengths were read for 1 cells. Last value is used till cell 45.
WARNING: Dispersivities were read for 1 cells. Last value is used till cell 45.
		file 	krest.sel
		reset 	false
		time
		distance
		totals	[224Ra]
	END
------------------------------------
Beginning of transport calculations.
------------------------------------

-------------------------------
Equilibrating initial solutions
-------------------------------

Using solution 1.	
Using surface 1.	

------------------------------Surface composition------------------------------

Solid         
	  0.000e+00  Surface charge, eq
	  0.000e+00  sigma, C/m**2
	  0.000e+00  psi, V
	 -0.000e+00  -F*psi/RT
	  1.000e+00  exp(-F*psi/RT)
	  1.000e+00  specific area, m**2/g
	 1.000e+100  m**2 for  1.000e+100 g


Solid         
	 1.000e+100  moles
	                                   Mole                     Log
	Species               Moles    Fraction    Molality    Molality

	Solid            1.000e+100       1.000  1.000e+100     100.000

-----------------------------Solution composition------------------------------

	Elements           Molality       Moles

	C                 1.000e-03   1.000e-03
	Ca                4.118e-04   4.118e-04

----------------------------Description of solution----------------------------

                                       pH  =   7.000      Charge balance
                                       pe  =  10.764      Adjusted to redox equilibrium
       Specific Conductance (uS/cm, 25 oC) = 81
                          Density (g/cm3)  =   0.99710
                               Volume (L)  =   1.00303
                        Activity of water  =   1.000
                           Ionic strength  =   1.228e-03
                       Mass of water (kg)  =   1.000e+00
                 Total alkalinity (eq/kg)  =   8.236e-04
                       Total CO2 (mol/kg)  =   1.000e-03
                      Temperature (deg C)  =  25.00
                  Electrical balance (eq)  =   1.021e-11
 Percent error, 100*(Cat-|An|)/(Cat+|An|)  =   0.00
                               Iterations  =  10
                                  Total H  = 1.110133e+02
                                  Total O  = 5.550904e+01

----------------------------Distribution of species----------------------------

                                               Log       Log       Log    mole V
   Species          Molality    Activity  Molality  Activity     Gamma   cm3/mol

   OH-             1.053e-07   1.012e-07    -6.978    -6.995    -0.017     -4.10
   H+              1.038e-07   1.000e-07    -6.984    -7.000    -0.016      0.00
   H2O             5.551e+01   1.000e+00     1.744    -0.000     0.000     18.07
C(-4)         0.000e+00
   CH4             0.000e+00   0.000e+00  -121.474  -121.474     0.000     32.22
C(4)          1.000e-03
   HCO3-           8.187e-04   7.876e-04    -3.087    -3.104    -0.017     24.59
   CO2             1.770e-04   1.771e-04    -3.752    -3.752     0.000     30.26
   CaHCO3+         3.648e-06   3.510e-06    -5.438    -5.455    -0.017      9.67
   CO3-2           4.313e-07   3.693e-07    -6.365    -6.433    -0.067     -4.36
   CaCO3           2.167e-07   2.167e-07    -6.664    -6.664     0.000    -14.60
Ca            4.118e-04
   Ca+2            4.079e-04   3.493e-04    -3.389    -3.457    -0.067    -18.13
   CaHCO3+         3.648e-06   3.510e-06    -5.438    -5.455    -0.017      9.67
   CaCO3           2.167e-07   2.167e-07    -6.664    -6.664     0.000    -14.60
   CaOH+           6.029e-10   5.797e-10    -9.220    -9.237    -0.017     (0)  
H(0)          4.197e-39
   H2              2.098e-39   2.099e-39   -38.678   -38.678     0.000     28.61
O(0)          1.892e-15
   O2              9.460e-16   9.462e-16   -15.024   -15.024     0.000     30.40

------------------------------Saturation indices-------------------------------

	Phase               SI   log IAP   log K(298 K,   1 atm)

	Aragonite        -1.55     -9.89   -8.34  CaCO3
	Calcite          -1.41     -9.89   -8.48  CaCO3
	CH4(g)         -118.63   -121.47   -2.84  CH4
	CO2(g)           -2.29     -3.75   -1.46  CO2
	H2(g)           -35.58    -38.68   -3.10  H2
	H2O(g)           -1.50     -0.00    1.50  H2O
	O2(g)           -12.13    -15.02   -2.89  O2


Using solution 2.	
Using surface 2.	

------------------------------Surface composition------------------------------

Solid         
	  0.000e+00  Surface charge, eq
	  0.000e+00  sigma, C/m**2
	  0.000e+00  psi, V
	 -0.000e+00  -F*psi/RT
	  1.000e+00  exp(-F*psi/RT)
	  1.000e+00  specific area, m**2/g
	 1.000e+100  m**2 for  1.000e+100 g


Solid         
	 1.000e+100  moles
	                                   Mole                     Log
	Species               Moles    Fraction    Molality    Molality

	Solid            1.000e+100       1.000  1.000e+100     100.000

-----------------------------Solution composition------------------------------

	Elements           Molality       Moles

	C                 1.000e-03   1.000e-03
	Ca                4.118e-04   4.118e-04

----------------------------Description of solution----------------------------

                                       pH  =   7.000      Charge balance
                                       pe  =  10.764      Adjusted to redox equilibrium
       Specific Conductance (uS/cm, 25 oC) = 81
                          Density (g/cm3)  =   0.99710
                               Volume (L)  =   1.00303
                        Activity of water  =   1.000
                           Ionic strength  =   1.228e-03
                       Mass of water (kg)  =   1.000e+00
                 Total alkalinity (eq/kg)  =   8.236e-04
                       Total CO2 (mol/kg)  =   1.000e-03
                      Temperature (deg C)  =  25.00
                  Electrical balance (eq)  =   1.021e-11
 Percent error, 100*(Cat-|An|)/(Cat+|An|)  =   0.00
                               Iterations  =  10
                                  Total H  = 1.110133e+02
                                  Total O  = 5.550904e+01

----------------------------Distribution of species----------------------------

                                               Log       Log       Log    mole V
   Species          Molality    Activity  Molality  Activity     Gamma   cm3/mol

   OH-             1.053e-07   1.012e-07    -6.978    -6.995    -0.017     -4.10
   H+              1.038e-07   1.000e-07    -6.984    -7.000    -0.016      0.00
   H2O             5.551e+01   1.000e+00     1.744    -0.000     0.000     18.07
C(-4)         0.000e+00
   CH4             0.000e+00   0.000e+00  -121.474  -121.474     0.000     32.22
C(4)          1.000e-03
   HCO3-           8.187e-04   7.876e-04    -3.087    -3.104    -0.017     24.59
   CO2             1.770e-04   1.771e-04    -3.752    -3.752     0.000     30.26
   CaHCO3+         3.648e-06   3.510e-06    -5.438    -5.455    -0.017      9.67
   CO3-2           4.313e-07   3.693e-07    -6.365    -6.433    -0.067     -4.36
   CaCO3           2.167e-07   2.167e-07    -6.664    -6.664     0.000    -14.60
Ca            4.118e-04
   Ca+2            4.079e-04   3.493e-04    -3.389    -3.457    -0.067    -18.13
   CaHCO3+         3.648e-06   3.510e-06    -5.438    -5.455    -0.017      9.67
   CaCO3           2.167e-07   2.167e-07    -6.664    -6.664     0.000    -14.60
   CaOH+           6.029e-10   5.797e-10    -9.220    -9.237    -0.017     (0)  
H(0)          4.197e-39
   H2              2.098e-39   2.099e-39   -38.678   -38.678     0.000     28.61
O(0)          1.892e-15
   O2              9.460e-16   9.462e-16   -15.024   -15.024     0.000     30.40

------------------------------Saturation indices-------------------------------

	Phase               SI   log IAP   log K(298 K,   1 atm)

	Aragonite        -1.55     -9.89   -8.34  CaCO3
	Calcite          -1.41     -9.89   -8.48  CaCO3
	CH4(g)         -118.63   -121.47   -2.84  CH4
	CO2(g)           -2.29     -3.75   -1.46  CO2
	H2(g)           -35.58    -38.68   -3.10  H2
	H2O(g)           -1.50     -0.00    1.50  H2O
	O2(g)           -12.13    -15.02   -2.89  O2


Using solution 3.	
Using surface 3.	

------------------------------Surface composition------------------------------

Solid         
	  0.000e+00  Surface charge, eq
	  0.000e+00  sigma, C/m**2
	  0.000e+00  psi, V
	 -0.000e+00  -F*psi/RT
	  1.000e+00  exp(-F*psi/RT)
	  1.000e+00  specific area, m**2/g
	 1.000e+100  m**2 for  1.000e+100 g


Solid         
	 1.000e+100  moles
	                                   Mole                     Log
	Species               Moles    Fraction    Molality    Molality

	Solid            1.000e+100       1.000  1.000e+100     100.000

-----------------------------Solution composition------------------------------

	Elements           Molality       Moles

	C                 1.000e-03   1.000e-03
	Ca                4.118e-04   4.118e-04

----------------------------Description of solution----------------------------

                                       pH  =   7.000      Charge balance
                                       pe  =  10.764      Adjusted to redox equilibrium
       Specific Conductance (uS/cm, 25 oC) = 81
                          Density (g/cm3)  =   0.99710
                               Volume (L)  =   1.00303
                        Activity of water  =   1.000
                           Ionic strength  =   1.228e-03
                       Mass of water (kg)  =   1.000e+00
                 Total alkalinity (eq/kg)  =   8.236e-04
                       Total CO2 (mol/kg)  =   1.000e-03
                      Temperature (deg C)  =  25.00
                  Electrical balance (eq)  =   1.021e-11
 Percent error, 100*(Cat-|An|)/(Cat+|An|)  =   0.00
                               Iterations  =  10
                                  Total H  = 1.110133e+02
                                  Total O  = 5.550904e+01

----------------------------Distribution of species----------------------------

                                               Log       Log       Log    mole V
   Species          Molality    Activity  Molality  Activity     Gamma   cm3/mol

   OH-             1.053e-07   1.012e-07    -6.978    -6.995    -0.017     -4.10
   H+              1.038e-07   1.000e-07    -6.984    -7.000    -0.016      0.00
   H2O             5.551e+01   1.000e+00     1.744    -0.000     0.000     18.07
C(-4)         0.000e+00
   CH4             0.000e+00   0.000e+00  -121.474  -121.474     0.000     32.22
C(4)          1.000e-03
   HCO3-           8.187e-04   7.876e-04    -3.087    -3.104    -0.017     24.59
   CO2             1.770e-04   1.771e-04    -3.752    -3.752     0.000     30.26
   CaHCO3+         3.648e-06   3.510e-06    -5.438    -5.455    -0.017      9.67
   CO3-2           4.313e-07   3.693e-07    -6.365    -6.433    -0.067     -4.36
   CaCO3           2.167e-07   2.167e-07    -6.664    -6.664     0.000    -14.60
Ca            4.118e-04
   Ca+2            4.079e-04   3.493e-04    -3.389    -3.457    -0.067    -18.13
   CaHCO3+         3.648e-06   3.510e-06    -5.438    -5.455    -0.017      9.67
   CaCO3           2.167e-07   2.167e-07    -6.664    -6.664     0.000    -14.60
   CaOH+           6.029e-10   5.797e-10    -9.220    -9.237    -0.017     (0)  
H(0)          4.197e-39
   H2              2.098e-39   2.099e-39   -38.678   -38.678     0.000     28.61
O(0)          1.892e-15
   O2              9.460e-16   9.462e-16   -15.024   -15.024     0.000     30.40

------------------------------Saturation indices-------------------------------

	Phase               SI   log IAP   log K(298 K,   1 atm)

	Aragonite        -1.55     -9.89   -8.34  CaCO3
	Calcite          -1.41     -9.89   -8.48  CaCO3
	CH4(g)         -118.63   -121.47   -2.84  CH4
	CO2(g)           -2.29     -3.75   -1.46  CO2
	H2(g)           -35.58    -38.68   -3.10  H2
	H2O(g)           -1.50     -0.00    1.50  H2O
	O2(g)           -12.13    -15.02   -2.89  O2


Using solution 4.	
Using surface 4.	

------------------------------Surface composition------------------------------

Solid         
	  0.000e+00  Surface charge, eq
	  0.000e+00  sigma, C/m**2
	  0.000e+00  psi, V
	 -0.000e+00  -F*psi/RT
	  1.000e+00  exp(-F*psi/RT)
	  1.000e+00  specific area, m**2/g
	 1.000e+100  m**2 for  1.000e+100 g


Solid         
	 1.000e+100  moles
	                                   Mole                     Log
	Species               Moles    Fraction    Molality    Molality

	Solid            1.000e+100       1.000  1.000e+100     100.000

-----------------------------Solution composition------------------------------

	Elements           Molality       Moles

	C                 1.000e-03   1.000e-03
	Ca                4.118e-04   4.118e-04

----------------------------Description of solution----------------------------

                                       pH  =   7.000      Charge balance
                                       pe  =  10.764      Adjusted to redox equilibrium
       Specific Conductance (uS/cm, 25 oC) = 81
                          Density (g/cm3)  =   0.99710
                               Volume (L)  =   1.00303
                        Activity of water  =   1.000
                           Ionic strength  =   1.228e-03
                       Mass of water (kg)  =   1.000e+00
                 Total alkalinity (eq/kg)  =   8.236e-04
                       Total CO2 (mol/kg)  =   1.000e-03
                      Temperature (deg C)  =  25.00
                  Electrical balance (eq)  =   1.021e-11
 Percent error, 100*(Cat-|An|)/(Cat+|An|)  =   0.00
                               Iterations  =  10
                                  Total H  = 1.110133e+02
                                  Total O  = 5.550904e+01

----------------------------Distribution of species----------------------------

                                               Log       Log       Log    mole V
   Species          Molality    Activity  Molality  Activity     Gamma   cm3/mol

   OH-             1.053e-07   1.012e-07    -6.978    -6.995    -0.017     -4.10
   H+              1.038e-07   1.000e-07    -6.984    -7.000    -0.016      0.00
   H2O             5.551e+01   1.000e+00     1.744    -0.000     0.000     18.07
C(-4)         0.000e+00
   CH4             0.000e+00   0.000e+00  -121.474  -121.474     0.000     32.22
C(4)          1.000e-03
   HCO3-           8.187e-04   7.876e-04    -3.087    -3.104    -0.017     24.59
   CO2             1.770e-04   1.771e-04    -3.752    -3.752     0.000     30.26
   CaHCO3+         3.648e-06   3.510e-06    -5.438    -5.455    -0.017      9.67
   CO3-2           4.313e-07   3.693e-07    -6.365    -6.433    -0.067     -4.36
   CaCO3           2.167e-07   2.167e-07    -6.664    -6.664     0.000    -14.60
Ca            4.118e-04
   Ca+2            4.079e-04   3.493e-04    -3.389    -3.457    -0.067    -18.13
   CaHCO3+         3.648e-06   3.510e-06    -5.438    -5.455    -0.017      9.67
   CaCO3           2.167e-07   2.167e-07    -6.664    -6.664     0.000    -14.60
   CaOH+           6.029e-10   5.797e-10    -9.220    -9.237    -0.017     (0)  
H(0)          4.197e-39
   H2              2.098e-39   2.099e-39   -38.678   -38.678     0.000     28.61
O(0)          1.892e-15
   O2              9.460e-16   9.462e-16   -15.024   -15.024     0.000     30.40

------------------------------Saturation indices-------------------------------

	Phase               SI   log IAP   log K(298 K,   1 atm)

	Aragonite        -1.55     -9.89   -8.34  CaCO3
	Calcite          -1.41     -9.89   -8.48  CaCO3
	CH4(g)         -118.63   -121.47   -2.84  CH4
	CO2(g)           -2.29     -3.75   -1.46  CO2
	H2(g)           -35.58    -38.68   -3.10  H2
	H2O(g)           -1.50     -0.00    1.50  H2O
	O2(g)           -12.13    -15.02   -2.89  O2


Using solution 5.	
Using surface 5.	

------------------------------Surface composition------------------------------

Solid         
	  0.000e+00  Surface charge, eq
	  0.000e+00  sigma, C/m**2
	  0.000e+00  psi, V
	 -0.000e+00  -F*psi/RT
	  1.000e+00  exp(-F*psi/RT)
	  1.000e+00  specific area, m**2/g
	 1.000e+100  m**2 for  1.000e+100 g


Solid         
	 1.000e+100  moles
	                                   Mole                     Log
	Species               Moles    Fraction    Molality    Molality

	Solid            1.000e+100       1.000  1.000e+100     100.000

-----------------------------Solution composition------------------------------

	Elements           Molality       Moles

	C                 1.000e-03   1.000e-03
	Ca                4.118e-04   4.118e-04

----------------------------Description of solution----------------------------

                                       pH  =   7.000      Charge balance
                                       pe  =  10.764      Adjusted to redox equilibrium
       Specific Conductance (uS/cm, 25 oC) = 81
                          Density (g/cm3)  =   0.99710
                               Volume (L)  =   1.00303
                        Activity of water  =   1.000
                           Ionic strength  =   1.228e-03
                       Mass of water (kg)  =   1.000e+00
                 Total alkalinity (eq/kg)  =   8.236e-04
                       Total CO2 (mol/kg)  =   1.000e-03
                      Temperature (deg C)  =  25.00
                  Electrical balance (eq)  =   1.021e-11
 Percent error, 100*(Cat-|An|)/(Cat+|An|)  =   0.00
                               Iterations  =  10
                                  Total H  = 1.110133e+02
                                  Total O  = 5.550904e+01

----------------------------Distribution of species----------------------------

                                               Log       Log       Log    mole V
   Species          Molality    Activity  Molality  Activity     Gamma   cm3/mol

   OH-             1.053e-07   1.012e-07    -6.978    -6.995    -0.017     -4.10
   H+              1.038e-07   1.000e-07    -6.984    -7.000    -0.016      0.00
   H2O             5.551e+01   1.000e+00     1.744    -0.000     0.000     18.07
C(-4)         0.000e+00
   CH4             0.000e+00   0.000e+00  -121.474  -121.474     0.000     32.22
C(4)          1.000e-03
   HCO3-           8.187e-04   7.876e-04    -3.087    -3.104    -0.017     24.59
   CO2             1.770e-04   1.771e-04    -3.752    -3.752     0.000     30.26
   CaHCO3+         3.648e-06   3.510e-06    -5.438    -5.455    -0.017      9.67
   CO3-2           4.313e-07   3.693e-07    -6.365    -6.433    -0.067     -4.36
   CaCO3           2.167e-07   2.167e-07    -6.664    -6.664     0.000    -14.60
Ca            4.118e-04
   Ca+2            4.079e-04   3.493e-04    -3.389    -3.457    -0.067    -18.13
   CaHCO3+         3.648e-06   3.510e-06    -5.438    -5.455    -0.017      9.67
   CaCO3           2.167e-07   2.167e-07    -6.664    -6.664     0.000    -14.60
   CaOH+           6.029e-10   5.797e-10    -9.220    -9.237    -0.017     (0)  
H(0)          4.197e-39
   H2              2.098e-39   2.099e-39   -38.678   -38.678     0.000     28.61
O(0)          1.892e-15
   O2              9.460e-16   9.462e-16   -15.024   -15.024     0.000     30.40

------------------------------Saturation indices-------------------------------

	Phase               SI   log IAP   log K(298 K,   1 atm)

	Aragonite        -1.55     -9.89   -8.34  CaCO3
	Calcite          -1.41     -9.89   -8.48  CaCO3
	CH4(g)         -118.63   -121.47   -2.84  CH4
	CO2(g)           -2.29     -3.75   -1.46  CO2
	H2(g)           -35.58    -38.68   -3.10  H2
	H2O(g)           -1.50     -0.00    1.50  H2O
	O2(g)           -12.13    -15.02   -2.89  O2


Using solution 6.	
Using surface 6.	

------------------------------Surface composition------------------------------

Solid         
	  0.000e+00  Surface charge, eq
	  0.000e+00  sigma, C/m**2
	  0.000e+00  psi, V
	 -0.000e+00  -F*psi/RT
	  1.000e+00  exp(-F*psi/RT)
	  1.000e+00  specific area, m**2/g
	 1.000e+100  m**2 for  1.000e+100 g


Solid         
	 1.000e+100  moles
	                                   Mole                     Log
	Species               Moles    Fraction    Molality    Molality

	Solid            1.000e+100       1.000  1.000e+100     100.000

-----------------------------Solution composition------------------------------

	Elements           Molality       Moles

	C                 1.000e-03   1.000e-03
	Ca                4.118e-04   4.118e-04

----------------------------Description of solution----------------------------

                                       pH  =   7.000      Charge balance
                                       pe  =  10.764      Adjusted to redox equilibrium
       Specific Conductance (uS/cm, 25 oC) = 81
                          Density (g/cm3)  =   0.99710
                               Volume (L)  =   1.00303
                        Activity of water  =   1.000
                           Ionic strength  =   1.228e-03
                       Mass of water (kg)  =   1.000e+00
                 Total alkalinity (eq/kg)  =   8.236e-04
                       Total CO2 (mol/kg)  =   1.000e-03
                      Temperature (deg C)  =  25.00
                  Electrical balance (eq)  =   1.021e-11
 Percent error, 100*(Cat-|An|)/(Cat+|An|)  =   0.00
                               Iterations  =  10
                                  Total H  = 1.110133e+02
                                  Total O  = 5.550904e+01

----------------------------Distribution of species----------------------------

                                               Log       Log       Log    mole V
   Species          Molality    Activity  Molality  Activity     Gamma   cm3/mol

   OH-             1.053e-07   1.012e-07    -6.978    -6.995    -0.017     -4.10
   H+              1.038e-07   1.000e-07    -6.984    -7.000    -0.016      0.00
   H2O             5.551e+01   1.000e+00     1.744    -0.000     0.000     18.07
C(-4)         0.000e+00
   CH4             0.000e+00   0.000e+00  -121.474  -121.474     0.000     32.22
C(4)          1.000e-03
   HCO3-           8.187e-04   7.876e-04    -3.087    -3.104    -0.017     24.59
   CO2             1.770e-04   1.771e-04    -3.752    -3.752     0.000     30.26
   CaHCO3+         3.648e-06   3.510e-06    -5.438    -5.455    -0.017      9.67
   CO3-2           4.313e-07   3.693e-07    -6.365    -6.433    -0.067     -4.36
   CaCO3           2.167e-07   2.167e-07    -6.664    -6.664     0.000    -14.60
Ca            4.118e-04
   Ca+2            4.079e-04   3.493e-04    -3.389    -3.457    -0.067    -18.13
   CaHCO3+         3.648e-06   3.510e-06    -5.438    -5.455    -0.017      9.67
   CaCO3           2.167e-07   2.167e-07    -6.664    -6.664     0.000    -14.60
   CaOH+           6.029e-10   5.797e-10    -9.220    -9.237    -0.017     (0)  
H(0)          4.197e-39
   H2              2.098e-39   2.099e-39   -38.678   -38.678     0.000     28.61
O(0)          1.892e-15
   O2              9.460e-16   9.462e-16   -15.024   -15.024     0.000     30.40

------------------------------Saturation indices-------------------------------

	Phase               SI   log IAP   log K(298 K,   1 atm)

	Aragonite        -1.55     -9.89   -8.34  CaCO3
	Calcite          -1.41     -9.89   -8.48  CaCO3
	CH4(g)         -118.63   -121.47   -2.84  CH4
	CO2(g)           -2.29     -3.75   -1.46  CO2
	H2(g)           -35.58    -38.68   -3.10  H2
	H2O(g)           -1.50     -0.00    1.50  H2O
	O2(g)           -12.13    -15.02   -2.89  O2


Using solution 7.	
Using surface 7.	

------------------------------Surface composition------------------------------

Solid         
	  0.000e+00  Surface charge, eq
	  0.000e+00  sigma, C/m**2
	  0.000e+00  psi, V
	 -0.000e+00  -F*psi/RT
	  1.000e+00  exp(-F*psi/RT)
	  1.000e+00  specific area, m**2/g
	 1.000e+100  m**2 for  1.000e+100 g


Solid         
	 1.000e+100  moles
	                                   Mole                     Log
	Species               Moles    Fraction    Molality    Molality

	Solid            1.000e+100       1.000  1.000e+100     100.000

-----------------------------Solution composition------------------------------

	Elements           Molality       Moles

	C                 1.000e-03   1.000e-03
	Ca                4.118e-04   4.118e-04

----------------------------Description of solution----------------------------

                                       pH  =   7.000      Charge balance
                                       pe  =  10.764      Adjusted to redox equilibrium
       Specific Conductance (uS/cm, 25 oC) = 81
                          Density (g/cm3)  =   0.99710
                               Volume (L)  =   1.00303
                        Activity of water  =   1.000
                           Ionic strength  =   1.228e-03
                       Mass of water (kg)  =   1.000e+00
                 Total alkalinity (eq/kg)  =   8.236e-04
                       Total CO2 (mol/kg)  =   1.000e-03
                      Temperature (deg C)  =  25.00
                  Electrical balance (eq)  =   1.021e-11
 Percent error, 100*(Cat-|An|)/(Cat+|An|)  =   0.00
                               Iterations  =  10
                                  Total H  = 1.110133e+02
                                  Total O  = 5.550904e+01

----------------------------Distribution of species----------------------------

                                               Log       Log       Log    mole V
   Species          Molality    Activity  Molality  Activity     Gamma   cm3/mol

   OH-             1.053e-07   1.012e-07    -6.978    -6.995    -0.017     -4.10
   H+              1.038e-07   1.000e-07    -6.984    -7.000    -0.016      0.00
   H2O             5.551e+01   1.000e+00     1.744    -0.000     0.000     18.07
C(-4)         0.000e+00
   CH4             0.000e+00   0.000e+00  -121.474  -121.474     0.000     32.22
C(4)          1.000e-03
   HCO3-           8.187e-04   7.876e-04    -3.087    -3.104    -0.017     24.59
   CO2             1.770e-04   1.771e-04    -3.752    -3.752     0.000     30.26
   CaHCO3+         3.648e-06   3.510e-06    -5.438    -5.455    -0.017      9.67
   CO3-2           4.313e-07   3.693e-07    -6.365    -6.433    -0.067     -4.36
   CaCO3           2.167e-07   2.167e-07    -6.664    -6.664     0.000    -14.60
Ca            4.118e-04
   Ca+2            4.079e-04   3.493e-04    -3.389    -3.457    -0.067    -18.13
   CaHCO3+         3.648e-06   3.510e-06    -5.438    -5.455    -0.017      9.67
   CaCO3           2.167e-07   2.167e-07    -6.664    -6.664     0.000    -14.60
   CaOH+           6.029e-10   5.797e-10    -9.220    -9.237    -0.017     (0)  
H(0)          4.197e-39
   H2              2.098e-39   2.099e-39   -38.678   -38.678     0.000     28.61
O(0)          1.892e-15
   O2              9.460e-16   9.462e-16   -15.024   -15.024     0.000     30.40

------------------------------Saturation indices-------------------------------

	Phase               SI   log IAP   log K(298 K,   1 atm)

	Aragonite        -1.55     -9.89   -8.34  CaCO3
	Calcite          -1.41     -9.89   -8.48  CaCO3
	CH4(g)         -118.63   -121.47   -2.84  CH4
	CO2(g)           -2.29     -3.75   -1.46  CO2
	H2(g)           -35.58    -38.68   -3.10  H2
	H2O(g)           -1.50     -0.00    1.50  H2O
	O2(g)           -12.13    -15.02   -2.89  O2


Using solution 8.	
Using surface 8.	

------------------------------Surface composition------------------------------

Solid         
	  0.000e+00  Surface charge, eq
	  0.000e+00  sigma, C/m**2
	  0.000e+00  psi, V
	 -0.000e+00  -F*psi/RT
	  1.000e+00  exp(-F*psi/RT)
	  1.000e+00  specific area, m**2/g
	 1.000e+100  m**2 for  1.000e+100 g


Solid         
	 1.000e+100  moles
	                                   Mole                     Log
	Species               Moles    Fraction    Molality    Molality

	Solid            1.000e+100       1.000  1.000e+100     100.000

-----------------------------Solution composition------------------------------

	Elements           Molality       Moles

	C                 1.000e-03   1.000e-03
	Ca                4.118e-04   4.118e-04

----------------------------Description of solution----------------------------

                                       pH  =   7.000      Charge balance
                                       pe  =  10.764      Adjusted to redox equilibrium
       Specific Conductance (uS/cm, 25 oC) = 81
                          Density (g/cm3)  =   0.99710
                               Volume (L)  =   1.00303
                        Activity of water  =   1.000
                           Ionic strength  =   1.228e-03
                       Mass of water (kg)  =   1.000e+00
                 Total alkalinity (eq/kg)  =   8.236e-04
                       Total CO2 (mol/kg)  =   1.000e-03
                      Temperature (deg C)  =  25.00
                  Electrical balance (eq)  =   1.021e-11
 Percent error, 100*(Cat-|An|)/(Cat+|An|)  =   0.00
                               Iterations  =  10
                                  Total H  = 1.110133e+02
                                  Total O  = 5.550904e+01

----------------------------Distribution of species----------------------------

                                               Log       Log       Log    mole V
   Species          Molality    Activity  Molality  Activity     Gamma   cm3/mol

   OH-             1.053e-07   1.012e-07    -6.978    -6.995    -0.017     -4.10
   H+              1.038e-07   1.000e-07    -6.984    -7.000    -0.016      0.00
   H2O             5.551e+01   1.000e+00     1.744    -0.000     0.000     18.07
C(-4)         0.000e+00
   CH4             0.000e+00   0.000e+00  -121.474  -121.474     0.000     32.22
C(4)          1.000e-03
   HCO3-           8.187e-04   7.876e-04    -3.087    -3.104    -0.017     24.59
   CO2             1.770e-04   1.771e-04    -3.752    -3.752     0.000     30.26
   CaHCO3+         3.648e-06   3.510e-06    -5.438    -5.455    -0.017      9.67
   CO3-2           4.313e-07   3.693e-07    -6.365    -6.433    -0.067     -4.36
   CaCO3           2.167e-07   2.167e-07    -6.664    -6.664     0.000    -14.60
Ca            4.118e-04
   Ca+2            4.079e-04   3.493e-04    -3.389    -3.457    -0.067    -18.13
   CaHCO3+         3.648e-06   3.510e-06    -5.438    -5.455    -0.017      9.67
   CaCO3           2.167e-07   2.167e-07    -6.664    -6.664     0.000    -14.60
   CaOH+           6.029e-10   5.797e-10    -9.220    -9.237    -0.017     (0)  
H(0)          4.197e-39
   H2              2.098e-39   2.099e-39   -38.678   -38.678     0.000     28.61
O(0)          1.892e-15
   O2              9.460e-16   9.462e-16   -15.024   -15.024     0.000     30.40

------------------------------Saturation indices-------------------------------

	Phase               SI   log IAP   log K(298 K,   1 atm)

	Aragonite        -1.55     -9.89   -8.34  CaCO3
	Calcite          -1.41     -9.89   -8.48  CaCO3
	CH4(g)         -118.63   -121.47   -2.84  CH4
	CO2(g)           -2.29     -3.75   -1.46  CO2
	H2(g)           -35.58    -38.68   -3.10  H2
	H2O(g)           -1.50     -0.00    1.50  H2O
	O2(g)           -12.13    -15.02   -2.89  O2


Using solution 9.	
Using surface 9.	

------------------------------Surface composition------------------------------

Solid         
	  0.000e+00  Surface charge, eq
	  0.000e+00  sigma, C/m**2
	  0.000e+00  psi, V
	 -0.000e+00  -F*psi/RT
	  1.000e+00  exp(-F*psi/RT)
	  1.000e+00  specific area, m**2/g
	 1.000e+100  m**2 for  1.000e+100 g


Solid         
	 1.000e+100  moles
	                                   Mole                     Log
	Species               Moles    Fraction    Molality    Molality

	Solid            1.000e+100       1.000  1.000e+100     100.000

-----------------------------Solution composition------------------------------

	Elements           Molality       Moles

	C                 1.000e-03   1.000e-03
	Ca                4.118e-04   4.118e-04

----------------------------Description of solution----------------------------

                                       pH  =   7.000      Charge balance
                                       pe  =  10.764      Adjusted to redox equilibrium
       Specific Conductance (uS/cm, 25 oC) = 81
                          Density (g/cm3)  =   0.99710
                               Volume (L)  =   1.00303
                        Activity of water  =   1.000
                           Ionic strength  =   1.228e-03
                       Mass of water (kg)  =   1.000e+00
                 Total alkalinity (eq/kg)  =   8.236e-04
                       Total CO2 (mol/kg)  =   1.000e-03
                      Temperature (deg C)  =  25.00
                  Electrical balance (eq)  =   1.021e-11
 Percent error, 100*(Cat-|An|)/(Cat+|An|)  =   0.00
                               Iterations  =  10
                                  Total H  = 1.110133e+02
                                  Total O  = 5.550904e+01

----------------------------Distribution of species----------------------------

                                               Log       Log       Log    mole V
   Species          Molality    Activity  Molality  Activity     Gamma   cm3/mol

   OH-             1.053e-07   1.012e-07    -6.978    -6.995    -0.017     -4.10
   H+              1.038e-07   1.000e-07    -6.984    -7.000    -0.016      0.00
   H2O             5.551e+01   1.000e+00     1.744    -0.000     0.000     18.07
C(-4)         0.000e+00
   CH4             0.000e+00   0.000e+00  -121.474  -121.474     0.000     32.22
C(4)          1.000e-03
   HCO3-           8.187e-04   7.876e-04    -3.087    -3.104    -0.017     24.59
   CO2             1.770e-04   1.771e-04    -3.752    -3.752     0.000     30.26
   CaHCO3+         3.648e-06   3.510e-06    -5.438    -5.455    -0.017      9.67
   CO3-2           4.313e-07   3.693e-07    -6.365    -6.433    -0.067     -4.36
   CaCO3           2.167e-07   2.167e-07    -6.664    -6.664     0.000    -14.60
Ca            4.118e-04
   Ca+2            4.079e-04   3.493e-04    -3.389    -3.457    -0.067    -18.13
   CaHCO3+         3.648e-06   3.510e-06    -5.438    -5.455    -0.017      9.67
   CaCO3           2.167e-07   2.167e-07    -6.664    -6.664     0.000    -14.60
   CaOH+           6.029e-10   5.797e-10    -9.220    -9.237    -0.017     (0)  
H(0)          4.197e-39
   H2              2.098e-39   2.099e-39   -38.678   -38.678     0.000     28.61
O(0)          1.892e-15
   O2              9.460e-16   9.462e-16   -15.024   -15.024     0.000     30.40

------------------------------Saturation indices-------------------------------

	Phase               SI   log IAP   log K(298 K,   1 atm)

	Aragonite        -1.55     -9.89   -8.34  CaCO3
	Calcite          -1.41     -9.89   -8.48  CaCO3
	CH4(g)         -118.63   -121.47   -2.84  CH4
	CO2(g)           -2.29     -3.75   -1.46  CO2
	H2(g)           -35.58    -38.68   -3.10  H2
	H2O(g)           -1.50     -0.00    1.50  H2O
	O2(g)           -12.13    -15.02   -2.89  O2


Using solution 10.	
Using surface 10.	

------------------------------Surface composition------------------------------

Solid         
	  0.000e+00  Surface charge, eq
	  0.000e+00  sigma, C/m**2
	  0.000e+00  psi, V
	 -0.000e+00  -F*psi/RT
	  1.000e+00  exp(-F*psi/RT)
	  1.000e+00  specific area, m**2/g
	 1.000e+100  m**2 for  1.000e+100 g


Solid         
	 1.000e+100  moles
	                                   Mole                     Log
	Species               Moles    Fraction    Molality    Molality

	Solid            1.000e+100       1.000  1.000e+100     100.000

-----------------------------Solution composition------------------------------

	Elements           Molality       Moles

	C                 1.000e-03   1.000e-03
	Ca                4.118e-04   4.118e-04

----------------------------Description of solution----------------------------

                                       pH  =   7.000      Charge balance
                                       pe  =  10.764      Adjusted to redox equilibrium
       Specific Conductance (uS/cm, 25 oC) = 81
                          Density (g/cm3)  =   0.99710
                               Volume (L)  =   1.00303
                        Activity of water  =   1.000
                           Ionic strength  =   1.228e-03
                       Mass of water (kg)  =   1.000e+00
                 Total alkalinity (eq/kg)  =   8.236e-04
                       Total CO2 (mol/kg)  =   1.000e-03
                      Temperature (deg C)  =  25.00
                  Electrical balance (eq)  =   1.021e-11
 Percent error, 100*(Cat-|An|)/(Cat+|An|)  =   0.00
                               Iterations  =  10
                                  Total H  = 1.110133e+02
                                  Total O  = 5.550904e+01

----------------------------Distribution of species----------------------------

                                               Log       Log       Log    mole V
   Species          Molality    Activity  Molality  Activity     Gamma   cm3/mol

   OH-             1.053e-07   1.012e-07    -6.978    -6.995    -0.017     -4.10
   H+              1.038e-07   1.000e-07    -6.984    -7.000    -0.016      0.00
   H2O             5.551e+01   1.000e+00     1.744    -0.000     0.000     18.07
C(-4)         0.000e+00
   CH4             0.000e+00   0.000e+00  -121.474  -121.474     0.000     32.22
C(4)          1.000e-03
   HCO3-           8.187e-04   7.876e-04    -3.087    -3.104    -0.017     24.59
   CO2             1.770e-04   1.771e-04    -3.752    -3.752     0.000     30.26
   CaHCO3+         3.648e-06   3.510e-06    -5.438    -5.455    -0.017      9.67
   CO3-2           4.313e-07   3.693e-07    -6.365    -6.433    -0.067     -4.36
   CaCO3           2.167e-07   2.167e-07    -6.664    -6.664     0.000    -14.60
Ca            4.118e-04
   Ca+2            4.079e-04   3.493e-04    -3.389    -3.457    -0.067    -18.13
   CaHCO3+         3.648e-06   3.510e-06    -5.438    -5.455    -0.017      9.67
   CaCO3           2.167e-07   2.167e-07    -6.664    -6.664     0.000    -14.60
   CaOH+           6.029e-10   5.797e-10    -9.220    -9.237    -0.017     (0)  
H(0)          4.197e-39
   H2              2.098e-39   2.099e-39   -38.678   -38.678     0.000     28.61
O(0)          1.892e-15
   O2              9.460e-16   9.462e-16   -15.024   -15.024     0.000     30.40

------------------------------Saturation indices-------------------------------

	Phase               SI   log IAP   log K(298 K,   1 atm)

	Aragonite        -1.55     -9.89   -8.34  CaCO3
	Calcite          -1.41     -9.89   -8.48  CaCO3
	CH4(g)         -118.63   -121.47   -2.84  CH4
	CO2(g)           -2.29     -3.75   -1.46  CO2
	H2(g)           -35.58    -38.68   -3.10  H2
	H2O(g)           -1.50     -0.00    1.50  H2O
	O2(g)           -12.13    -15.02   -2.89  O2


Using solution 11.	
Using surface 11.	

------------------------------Surface composition------------------------------

Solid         
	  0.000e+00  Surface charge, eq
	  0.000e+00  sigma, C/m**2
	  0.000e+00  psi, V
	 -0.000e+00  -F*psi/RT
	  1.000e+00  exp(-F*psi/RT)
	  1.000e+00  specific area, m**2/g
	 1.000e+100  m**2 for  1.000e+100 g


Solid         
	 1.000e+100  moles
	                                   Mole                     Log
	Species               Moles    Fraction    Molality    Molality

	Solid            1.000e+100       1.000  1.000e+100     100.000

-----------------------------Solution composition------------------------------

	Elements           Molality       Moles

	C                 1.000e-03   1.000e-03
	Ca                4.118e-04   4.118e-04

----------------------------Description of solution----------------------------

                                       pH  =   7.000      Charge balance
                                       pe  =  10.764      Adjusted to redox equilibrium
       Specific Conductance (uS/cm, 25 oC) = 81
                          Density (g/cm3)  =   0.99710
                               Volume (L)  =   1.00303
                        Activity of water  =   1.000
                           Ionic strength  =   1.228e-03
                       Mass of water (kg)  =   1.000e+00
                 Total alkalinity (eq/kg)  =   8.236e-04
                       Total CO2 (mol/kg)  =   1.000e-03
                      Temperature (deg C)  =  25.00
                  Electrical balance (eq)  =   1.021e-11
 Percent error, 100*(Cat-|An|)/(Cat+|An|)  =   0.00
                               Iterations  =  10
                                  Total H  = 1.110133e+02
                                  Total O  = 5.550904e+01

----------------------------Distribution of species----------------------------

                                               Log       Log       Log    mole V
   Species          Molality    Activity  Molality  Activity     Gamma   cm3/mol

   OH-             1.053e-07   1.012e-07    -6.978    -6.995    -0.017     -4.10
   H+              1.038e-07   1.000e-07    -6.984    -7.000    -0.016      0.00
   H2O             5.551e+01   1.000e+00     1.744    -0.000     0.000     18.07
C(-4)         0.000e+00
   CH4             0.000e+00   0.000e+00  -121.474  -121.474     0.000     32.22
C(4)          1.000e-03
   HCO3-           8.187e-04   7.876e-04    -3.087    -3.104    -0.017     24.59
   CO2             1.770e-04   1.771e-04    -3.752    -3.752     0.000     30.26
   CaHCO3+         3.648e-06   3.510e-06    -5.438    -5.455    -0.017      9.67
   CO3-2           4.313e-07   3.693e-07    -6.365    -6.433    -0.067     -4.36
   CaCO3           2.167e-07   2.167e-07    -6.664    -6.664     0.000    -14.60
Ca            4.118e-04
   Ca+2            4.079e-04   3.493e-04    -3.389    -3.457    -0.067    -18.13
   CaHCO3+         3.648e-06   3.510e-06    -5.438    -5.455    -0.017      9.67
   CaCO3           2.167e-07   2.167e-07    -6.664    -6.664     0.000    -14.60
   CaOH+           6.029e-10   5.797e-10    -9.220    -9.237    -0.017     (0)  
H(0)          4.197e-39
   H2              2.098e-39   2.099e-39   -38.678   -38.678     0.000     28.61
O(0)          1.892e-15
   O2              9.460e-16   9.462e-16   -15.024   -15.024     0.000     30.40

------------------------------Saturation indices-------------------------------

	Phase               SI   log IAP   log K(298 K,   1 atm)

	Aragonite        -1.55     -9.89   -8.34  CaCO3
	Calcite          -1.41     -9.89   -8.48  CaCO3
	CH4(g)         -118.63   -121.47   -2.84  CH4
	CO2(g)           -2.29     -3.75   -1.46  CO2
	H2(g)           -35.58    -38.68   -3.10  H2
	H2O(g)           -1.50     -0.00    1.50  H2O
	O2(g)           -12.13    -15.02   -2.89  O2


Using solution 12.	
Using surface 12.	

------------------------------Surface composition------------------------------

Solid         
	  0.000e+00  Surface charge, eq
	  0.000e+00  sigma, C/m**2
	  0.000e+00  psi, V
	 -0.000e+00  -F*psi/RT
	  1.000e+00  exp(-F*psi/RT)
	  1.000e+00  specific area, m**2/g
	 1.000e+100  m**2 for  1.000e+100 g


Solid         
	 1.000e+100  moles
	                                   Mole                     Log
	Species               Moles    Fraction    Molality    Molality

	Solid            1.000e+100       1.000  1.000e+100     100.000

-----------------------------Solution composition------------------------------

	Elements           Molality       Moles

	C                 1.000e-03   1.000e-03
	Ca                4.118e-04   4.118e-04

----------------------------Description of solution----------------------------

                                       pH  =   7.000      Charge balance
                                       pe  =  10.764      Adjusted to redox equilibrium
       Specific Conductance (uS/cm, 25 oC) = 81
                          Density (g/cm3)  =   0.99710
                               Volume (L)  =   1.00303
                        Activity of water  =   1.000
                           Ionic strength  =   1.228e-03
                       Mass of water (kg)  =   1.000e+00
                 Total alkalinity (eq/kg)  =   8.236e-04
                       Total CO2 (mol/kg)  =   1.000e-03
                      Temperature (deg C)  =  25.00
                  Electrical balance (eq)  =   1.021e-11
 Percent error, 100*(Cat-|An|)/(Cat+|An|)  =   0.00
                               Iterations  =  10
                                  Total H  = 1.110133e+02
                                  Total O  = 5.550904e+01

----------------------------Distribution of species----------------------------

                                               Log       Log       Log    mole V
   Species          Molality    Activity  Molality  Activity     Gamma   cm3/mol

   OH-             1.053e-07   1.012e-07    -6.978    -6.995    -0.017     -4.10
   H+              1.038e-07   1.000e-07    -6.984    -7.000    -0.016      0.00
   H2O             5.551e+01   1.000e+00     1.744    -0.000     0.000     18.07
C(-4)         0.000e+00
   CH4             0.000e+00   0.000e+00  -121.474  -121.474     0.000     32.22
C(4)          1.000e-03
   HCO3-           8.187e-04   7.876e-04    -3.087    -3.104    -0.017     24.59
   CO2             1.770e-04   1.771e-04    -3.752    -3.752     0.000     30.26
   CaHCO3+         3.648e-06   3.510e-06    -5.438    -5.455    -0.017      9.67
   CO3-2           4.313e-07   3.693e-07    -6.365    -6.433    -0.067     -4.36
   CaCO3           2.167e-07   2.167e-07    -6.664    -6.664     0.000    -14.60
Ca            4.118e-04
   Ca+2            4.079e-04   3.493e-04    -3.389    -3.457    -0.067    -18.13
   CaHCO3+         3.648e-06   3.510e-06    -5.438    -5.455    -0.017      9.67
   CaCO3           2.167e-07   2.167e-07    -6.664    -6.664     0.000    -14.60
   CaOH+           6.029e-10   5.797e-10    -9.220    -9.237    -0.017     (0)  
H(0)          4.197e-39
   H2              2.098e-39   2.099e-39   -38.678   -38.678     0.000     28.61
O(0)          1.892e-15
   O2              9.460e-16   9.462e-16   -15.024   -15.024     0.000     30.40

------------------------------Saturation indices-------------------------------

	Phase               SI   log IAP   log K(298 K,   1 atm)

	Aragonite        -1.55     -9.89   -8.34  CaCO3
	Calcite          -1.41     -9.89   -8.48  CaCO3
	CH4(g)         -118.63   -121.47   -2.84  CH4
	CO2(g)           -2.29     -3.75   -1.46  CO2
	H2(g)           -35.58    -38.68   -3.10  H2
	H2O(g)           -1.50     -0.00    1.50  H2O
	O2(g)           -12.13    -15.02   -2.89  O2


Using solution 13.	
Using surface 13.	

------------------------------Surface composition------------------------------

Solid         
	  0.000e+00  Surface charge, eq
	  0.000e+00  sigma, C/m**2
	  0.000e+00  psi, V
	 -0.000e+00  -F*psi/RT
	  1.000e+00  exp(-F*psi/RT)
	  1.000e+00  specific area, m**2/g
	 1.000e+100  m**2 for  1.000e+100 g


Solid         
	 1.000e+100  moles
	                                   Mole                     Log
	Species               Moles    Fraction    Molality    Molality

	Solid            1.000e+100       1.000  1.000e+100     100.000

-----------------------------Solution composition------------------------------

	Elements           Molality       Moles

	C                 1.000e-03   1.000e-03
	Ca                4.118e-04   4.118e-04

----------------------------Description of solution----------------------------

                                       pH  =   7.000      Charge balance
                                       pe  =  10.764      Adjusted to redox equilibrium
       Specific Conductance (uS/cm, 25 oC) = 81
                          Density (g/cm3)  =   0.99710
                               Volume (L)  =   1.00303
                        Activity of water  =   1.000
                           Ionic strength  =   1.228e-03
                       Mass of water (kg)  =   1.000e+00
                 Total alkalinity (eq/kg)  =   8.236e-04
                       Total CO2 (mol/kg)  =   1.000e-03
                      Temperature (deg C)  =  25.00
                  Electrical balance (eq)  =   1.021e-11
 Percent error, 100*(Cat-|An|)/(Cat+|An|)  =   0.00
                               Iterations  =  10
                                  Total H  = 1.110133e+02
                                  Total O  = 5.550904e+01

----------------------------Distribution of species----------------------------

                                               Log       Log       Log    mole V
   Species          Molality    Activity  Molality  Activity     Gamma   cm3/mol

   OH-             1.053e-07   1.012e-07    -6.978    -6.995    -0.017     -4.10
   H+              1.038e-07   1.000e-07    -6.984    -7.000    -0.016      0.00
   H2O             5.551e+01   1.000e+00     1.744    -0.000     0.000     18.07
C(-4)         0.000e+00
   CH4             0.000e+00   0.000e+00  -121.474  -121.474     0.000     32.22
C(4)          1.000e-03
   HCO3-           8.187e-04   7.876e-04    -3.087    -3.104    -0.017     24.59
   CO2             1.770e-04   1.771e-04    -3.752    -3.752     0.000     30.26
   CaHCO3+         3.648e-06   3.510e-06    -5.438    -5.455    -0.017      9.67
   CO3-2           4.313e-07   3.693e-07    -6.365    -6.433    -0.067     -4.36
   CaCO3           2.167e-07   2.167e-07    -6.664    -6.664     0.000    -14.60
Ca            4.118e-04
   Ca+2            4.079e-04   3.493e-04    -3.389    -3.457    -0.067    -18.13
   CaHCO3+         3.648e-06   3.510e-06    -5.438    -5.455    -0.017      9.67
   CaCO3           2.167e-07   2.167e-07    -6.664    -6.664     0.000    -14.60
   CaOH+           6.029e-10   5.797e-10    -9.220    -9.237    -0.017     (0)  
H(0)          4.197e-39
   H2              2.098e-39   2.099e-39   -38.678   -38.678     0.000     28.61
O(0)          1.892e-15
   O2              9.460e-16   9.462e-16   -15.024   -15.024     0.000     30.40

------------------------------Saturation indices-------------------------------

	Phase               SI   log IAP   log K(298 K,   1 atm)

	Aragonite        -1.55     -9.89   -8.34  CaCO3
	Calcite          -1.41     -9.89   -8.48  CaCO3
	CH4(g)         -118.63   -121.47   -2.84  CH4
	CO2(g)           -2.29     -3.75   -1.46  CO2
	H2(g)           -35.58    -38.68   -3.10  H2
	H2O(g)           -1.50     -0.00    1.50  H2O
	O2(g)           -12.13    -15.02   -2.89  O2


Using solution 14.	
Using surface 14.	

------------------------------Surface composition------------------------------

Solid         
	  0.000e+00  Surface charge, eq
	  0.000e+00  sigma, C/m**2
	  0.000e+00  psi, V
	 -0.000e+00  -F*psi/RT
	  1.000e+00  exp(-F*psi/RT)
	  1.000e+00  specific area, m**2/g
	 1.000e+100  m**2 for  1.000e+100 g


Solid         
	 1.000e+100  moles
	                                   Mole                     Log
	Species               Moles    Fraction    Molality    Molality

	Solid            1.000e+100       1.000  1.000e+100     100.000

-----------------------------Solution composition------------------------------

	Elements           Molality       Moles

	C                 1.000e-03   1.000e-03
	Ca                4.118e-04   4.118e-04

----------------------------Description of solution----------------------------

                                       pH  =   7.000      Charge balance
                                       pe  =  10.764      Adjusted to redox equilibrium
       Specific Conductance (uS/cm, 25 oC) = 81
                          Density (g/cm3)  =   0.99710
                               Volume (L)  =   1.00303
                        Activity of water  =   1.000
                           Ionic strength  =   1.228e-03
                       Mass of water (kg)  =   1.000e+00
                 Total alkalinity (eq/kg)  =   8.236e-04
                       Total CO2 (mol/kg)  =   1.000e-03
                      Temperature (deg C)  =  25.00
                  Electrical balance (eq)  =   1.021e-11
 Percent error, 100*(Cat-|An|)/(Cat+|An|)  =   0.00
                               Iterations  =  10
                                  Total H  = 1.110133e+02
                                  Total O  = 5.550904e+01

----------------------------Distribution of species----------------------------

                                               Log       Log       Log    mole V
   Species          Molality    Activity  Molality  Activity     Gamma   cm3/mol

   OH-             1.053e-07   1.012e-07    -6.978    -6.995    -0.017     -4.10
   H+              1.038e-07   1.000e-07    -6.984    -7.000    -0.016      0.00
   H2O             5.551e+01   1.000e+00     1.744    -0.000     0.000     18.07
C(-4)         0.000e+00
   CH4             0.000e+00   0.000e+00  -121.474  -121.474     0.000     32.22
C(4)          1.000e-03
   HCO3-           8.187e-04   7.876e-04    -3.087    -3.104    -0.017     24.59
   CO2             1.770e-04   1.771e-04    -3.752    -3.752     0.000     30.26
   CaHCO3+         3.648e-06   3.510e-06    -5.438    -5.455    -0.017      9.67
   CO3-2           4.313e-07   3.693e-07    -6.365    -6.433    -0.067     -4.36
   CaCO3           2.167e-07   2.167e-07    -6.664    -6.664     0.000    -14.60
Ca            4.118e-04
   Ca+2            4.079e-04   3.493e-04    -3.389    -3.457    -0.067    -18.13
   CaHCO3+         3.648e-06   3.510e-06    -5.438    -5.455    -0.017      9.67
   CaCO3           2.167e-07   2.167e-07    -6.664    -6.664     0.000    -14.60
   CaOH+           6.029e-10   5.797e-10    -9.220    -9.237    -0.017     (0)  
H(0)          4.197e-39
   H2              2.098e-39   2.099e-39   -38.678   -38.678     0.000     28.61
O(0)          1.892e-15
   O2              9.460e-16   9.462e-16   -15.024   -15.024     0.000     30.40

------------------------------Saturation indices-------------------------------

	Phase               SI   log IAP   log K(298 K,   1 atm)

	Aragonite        -1.55     -9.89   -8.34  CaCO3
	Calcite          -1.41     -9.89   -8.48  CaCO3
	CH4(g)         -118.63   -121.47   -2.84  CH4
	CO2(g)           -2.29     -3.75   -1.46  CO2
	H2(g)           -35.58    -38.68   -3.10  H2
	H2O(g)           -1.50     -0.00    1.50  H2O
	O2(g)           -12.13    -15.02   -2.89  O2


Using solution 15.	
Using surface 15.	

------------------------------Surface composition------------------------------

Solid         
	  0.000e+00  Surface charge, eq
	  0.000e+00  sigma, C/m**2
	  0.000e+00  psi, V
	 -0.000e+00  -F*psi/RT
	  1.000e+00  exp(-F*psi/RT)
	  1.000e+00  specific area, m**2/g
	 1.000e+100  m**2 for  1.000e+100 g


Solid         
	 1.000e+100  moles
	                                   Mole                     Log
	Species               Moles    Fraction    Molality    Molality

	Solid            1.000e+100       1.000  1.000e+100     100.000

-----------------------------Solution composition------------------------------

	Elements           Molality       Moles

	C                 1.000e-03   1.000e-03
	Ca                4.118e-04   4.118e-04

----------------------------Description of solution----------------------------

                                       pH  =   7.000      Charge balance
                                       pe  =  10.764      Adjusted to redox equilibrium
       Specific Conductance (uS/cm, 25 oC) = 81
                          Density (g/cm3)  =   0.99710
                               Volume (L)  =   1.00303
                        Activity of water  =   1.000
                           Ionic strength  =   1.228e-03
                       Mass of water (kg)  =   1.000e+00
                 Total alkalinity (eq/kg)  =   8.236e-04
                       Total CO2 (mol/kg)  =   1.000e-03
                      Temperature (deg C)  =  25.00
                  Electrical balance (eq)  =   1.021e-11
 Percent error, 100*(Cat-|An|)/(Cat+|An|)  =   0.00
                               Iterations  =  10
                                  Total H  = 1.110133e+02
                                  Total O  = 5.550904e+01

----------------------------Distribution of species----------------------------

                                               Log       Log       Log    mole V
   Species          Molality    Activity  Molality  Activity     Gamma   cm3/mol

   OH-             1.053e-07   1.012e-07    -6.978    -6.995    -0.017     -4.10
   H+              1.038e-07   1.000e-07    -6.984    -7.000    -0.016      0.00
   H2O             5.551e+01   1.000e+00     1.744    -0.000     0.000     18.07
C(-4)         0.000e+00
   CH4             0.000e+00   0.000e+00  -121.474  -121.474     0.000     32.22
C(4)          1.000e-03
   HCO3-           8.187e-04   7.876e-04    -3.087    -3.104    -0.017     24.59
   CO2             1.770e-04   1.771e-04    -3.752    -3.752     0.000     30.26
   CaHCO3+         3.648e-06   3.510e-06    -5.438    -5.455    -0.017      9.67
   CO3-2           4.313e-07   3.693e-07    -6.365    -6.433    -0.067     -4.36
   CaCO3           2.167e-07   2.167e-07    -6.664    -6.664     0.000    -14.60
Ca            4.118e-04
   Ca+2            4.079e-04   3.493e-04    -3.389    -3.457    -0.067    -18.13
   CaHCO3+         3.648e-06   3.510e-06    -5.438    -5.455    -0.017      9.67
   CaCO3           2.167e-07   2.167e-07    -6.664    -6.664     0.000    -14.60
   CaOH+           6.029e-10   5.797e-10    -9.220    -9.237    -0.017     (0)  
H(0)          4.197e-39
   H2              2.098e-39   2.099e-39   -38.678   -38.678     0.000     28.61
O(0)          1.892e-15
   O2              9.460e-16   9.462e-16   -15.024   -15.024     0.000     30.40

------------------------------Saturation indices-------------------------------

	Phase               SI   log IAP   log K(298 K,   1 atm)

	Aragonite        -1.55     -9.89   -8.34  CaCO3
	Calcite          -1.41     -9.89   -8.48  CaCO3
	CH4(g)         -118.63   -121.47   -2.84  CH4
	CO2(g)           -2.29     -3.75   -1.46  CO2
	H2(g)           -35.58    -38.68   -3.10  H2
	H2O(g)           -1.50     -0.00    1.50  H2O
	O2(g)           -12.13    -15.02   -2.89  O2


Using solution 16.	
Using surface 16.	

------------------------------Surface composition------------------------------

Solid         
	  0.000e+00  Surface charge, eq
	  0.000e+00  sigma, C/m**2
	  0.000e+00  psi, V
	 -0.000e+00  -F*psi/RT
	  1.000e+00  exp(-F*psi/RT)
	  1.000e+00  specific area, m**2/g
	 1.000e+100  m**2 for  1.000e+100 g


Solid         
	 1.000e+100  moles
	                                   Mole                     Log
	Species               Moles    Fraction    Molality    Molality

	Solid            1.000e+100       1.000  1.000e+100     100.000

-----------------------------Solution composition------------------------------

	Elements           Molality       Moles

	C                 1.000e-03   1.000e-03
	Ca                4.118e-04   4.118e-04

----------------------------Description of solution----------------------------

                                       pH  =   7.000      Charge balance
                                       pe  =  10.764      Adjusted to redox equilibrium
       Specific Conductance (uS/cm, 25 oC) = 81
                          Density (g/cm3)  =   0.99710
                               Volume (L)  =   1.00303
                        Activity of water  =   1.000
                           Ionic strength  =   1.228e-03
                       Mass of water (kg)  =   1.000e+00
                 Total alkalinity (eq/kg)  =   8.236e-04
                       Total CO2 (mol/kg)  =   1.000e-03
                      Temperature (deg C)  =  25.00
                  Electrical balance (eq)  =   1.021e-11
 Percent error, 100*(Cat-|An|)/(Cat+|An|)  =   0.00
                               Iterations  =  10
                                  Total H  = 1.110133e+02
                                  Total O  = 5.550904e+01

----------------------------Distribution of species----------------------------

                                               Log       Log       Log    mole V
   Species          Molality    Activity  Molality  Activity     Gamma   cm3/mol

   OH-             1.053e-07   1.012e-07    -6.978    -6.995    -0.017     -4.10
   H+              1.038e-07   1.000e-07    -6.984    -7.000    -0.016      0.00
   H2O             5.551e+01   1.000e+00     1.744    -0.000     0.000     18.07
C(-4)         0.000e+00
   CH4             0.000e+00   0.000e+00  -121.474  -121.474     0.000     32.22
C(4)          1.000e-03
   HCO3-           8.187e-04   7.876e-04    -3.087    -3.104    -0.017     24.59
   CO2             1.770e-04   1.771e-04    -3.752    -3.752     0.000     30.26
   CaHCO3+         3.648e-06   3.510e-06    -5.438    -5.455    -0.017      9.67
   CO3-2           4.313e-07   3.693e-07    -6.365    -6.433    -0.067     -4.36
   CaCO3           2.167e-07   2.167e-07    -6.664    -6.664     0.000    -14.60
Ca            4.118e-04
   Ca+2            4.079e-04   3.493e-04    -3.389    -3.457    -0.067    -18.13
   CaHCO3+         3.648e-06   3.510e-06    -5.438    -5.455    -0.017      9.67
   CaCO3           2.167e-07   2.167e-07    -6.664    -6.664     0.000    -14.60
   CaOH+           6.029e-10   5.797e-10    -9.220    -9.237    -0.017     (0)  
H(0)          4.197e-39
   H2              2.098e-39   2.099e-39   -38.678   -38.678     0.000     28.61
O(0)          1.892e-15
   O2              9.460e-16   9.462e-16   -15.024   -15.024     0.000     30.40

------------------------------Saturation indices-------------------------------

	Phase               SI   log IAP   log K(298 K,   1 atm)

	Aragonite        -1.55     -9.89   -8.34  CaCO3
	Calcite          -1.41     -9.89   -8.48  CaCO3
	CH4(g)         -118.63   -121.47   -2.84  CH4
	CO2(g)           -2.29     -3.75   -1.46  CO2
	H2(g)           -35.58    -38.68   -3.10  H2
	H2O(g)           -1.50     -0.00    1.50  H2O
	O2(g)           -12.13    -15.02   -2.89  O2


Using solution 17.	
Using surface 17.	

------------------------------Surface composition------------------------------

Solid         
	  0.000e+00  Surface charge, eq
	  0.000e+00  sigma, C/m**2
	  0.000e+00  psi, V
	 -0.000e+00  -F*psi/RT
	  1.000e+00  exp(-F*psi/RT)
	  1.000e+00  specific area, m**2/g
	 1.000e+100  m**2 for  1.000e+100 g


Solid         
	 1.000e+100  moles
	                                   Mole                     Log
	Species               Moles    Fraction    Molality    Molality

	Solid            1.000e+100       1.000  1.000e+100     100.000

-----------------------------Solution composition------------------------------

	Elements           Molality       Moles

	C                 1.000e-03   1.000e-03
	Ca                4.118e-04   4.118e-04

----------------------------Description of solution----------------------------

                                       pH  =   7.000      Charge balance
                                       pe  =  10.764      Adjusted to redox equilibrium
       Specific Conductance (uS/cm, 25 oC) = 81
                          Density (g/cm3)  =   0.99710
                               Volume (L)  =   1.00303
                        Activity of water  =   1.000
                           Ionic strength  =   1.228e-03
                       Mass of water (kg)  =   1.000e+00
                 Total alkalinity (eq/kg)  =   8.236e-04
                       Total CO2 (mol/kg)  =   1.000e-03
                      Temperature (deg C)  =  25.00
                  Electrical balance (eq)  =   1.021e-11
 Percent error, 100*(Cat-|An|)/(Cat+|An|)  =   0.00
                               Iterations  =  10
                                  Total H  = 1.110133e+02
                                  Total O  = 5.550904e+01

----------------------------Distribution of species----------------------------

                                               Log       Log       Log    mole V
   Species          Molality    Activity  Molality  Activity     Gamma   cm3/mol

   OH-             1.053e-07   1.012e-07    -6.978    -6.995    -0.017     -4.10
   H+              1.038e-07   1.000e-07    -6.984    -7.000    -0.016      0.00
   H2O             5.551e+01   1.000e+00     1.744    -0.000     0.000     18.07
C(-4)         0.000e+00
   CH4             0.000e+00   0.000e+00  -121.474  -121.474     0.000     32.22
C(4)          1.000e-03
   HCO3-           8.187e-04   7.876e-04    -3.087    -3.104    -0.017     24.59
   CO2             1.770e-04   1.771e-04    -3.752    -3.752     0.000     30.26
   CaHCO3+         3.648e-06   3.510e-06    -5.438    -5.455    -0.017      9.67
   CO3-2           4.313e-07   3.693e-07    -6.365    -6.433    -0.067     -4.36
   CaCO3           2.167e-07   2.167e-07    -6.664    -6.664     0.000    -14.60
Ca            4.118e-04
   Ca+2            4.079e-04   3.493e-04    -3.389    -3.457    -0.067    -18.13
   CaHCO3+         3.648e-06   3.510e-06    -5.438    -5.455    -0.017      9.67
   CaCO3           2.167e-07   2.167e-07    -6.664    -6.664     0.000    -14.60
   CaOH+           6.029e-10   5.797e-10    -9.220    -9.237    -0.017     (0)  
H(0)          4.197e-39
   H2              2.098e-39   2.099e-39   -38.678   -38.678     0.000     28.61
O(0)          1.892e-15
   O2              9.460e-16   9.462e-16   -15.024   -15.024     0.000     30.40

------------------------------Saturation indices-------------------------------

	Phase               SI   log IAP   log K(298 K,   1 atm)

	Aragonite        -1.55     -9.89   -8.34  CaCO3
	Calcite          -1.41     -9.89   -8.48  CaCO3
	CH4(g)         -118.63   -121.47   -2.84  CH4
	CO2(g)           -2.29     -3.75   -1.46  CO2
	H2(g)           -35.58    -38.68   -3.10  H2
	H2O(g)           -1.50     -0.00    1.50  H2O
	O2(g)           -12.13    -15.02   -2.89  O2


Using solution 18.	
Using surface 18.	

------------------------------Surface composition------------------------------

Solid         
	  0.000e+00  Surface charge, eq
	  0.000e+00  sigma, C/m**2
	  0.000e+00  psi, V
	 -0.000e+00  -F*psi/RT
	  1.000e+00  exp(-F*psi/RT)
	  1.000e+00  specific area, m**2/g
	 1.000e+100  m**2 for  1.000e+100 g


Solid         
	 1.000e+100  moles
	                                   Mole                     Log
	Species               Moles    Fraction    Molality    Molality

	Solid            1.000e+100       1.000  1.000e+100     100.000

-----------------------------Solution composition------------------------------

	Elements           Molality       Moles

	C                 1.000e-03   1.000e-03
	Ca                4.118e-04   4.118e-04

----------------------------Description of solution----------------------------

                                       pH  =   7.000      Charge balance
                                       pe  =  10.764      Adjusted to redox equilibrium
       Specific Conductance (uS/cm, 25 oC) = 81
                          Density (g/cm3)  =   0.99710
                               Volume (L)  =   1.00303
                        Activity of water  =   1.000
                           Ionic strength  =   1.228e-03
                       Mass of water (kg)  =   1.000e+00
                 Total alkalinity (eq/kg)  =   8.236e-04
                       Total CO2 (mol/kg)  =   1.000e-03
                      Temperature (deg C)  =  25.00
                  Electrical balance (eq)  =   1.021e-11
 Percent error, 100*(Cat-|An|)/(Cat+|An|)  =   0.00
                               Iterations  =  10
                                  Total H  = 1.110133e+02
                                  Total O  = 5.550904e+01

----------------------------Distribution of species----------------------------

                                               Log       Log       Log    mole V
   Species          Molality    Activity  Molality  Activity     Gamma   cm3/mol

   OH-             1.053e-07   1.012e-07    -6.978    -6.995    -0.017     -4.10
   H+              1.038e-07   1.000e-07    -6.984    -7.000    -0.016      0.00
   H2O             5.551e+01   1.000e+00     1.744    -0.000     0.000     18.07
C(-4)         0.000e+00
   CH4             0.000e+00   0.000e+00  -121.474  -121.474     0.000     32.22
C(4)          1.000e-03
   HCO3-           8.187e-04   7.876e-04    -3.087    -3.104    -0.017     24.59
   CO2             1.770e-04   1.771e-04    -3.752    -3.752     0.000     30.26
   CaHCO3+         3.648e-06   3.510e-06    -5.438    -5.455    -0.017      9.67
   CO3-2           4.313e-07   3.693e-07    -6.365    -6.433    -0.067     -4.36
   CaCO3           2.167e-07   2.167e-07    -6.664    -6.664     0.000    -14.60
Ca            4.118e-04
   Ca+2            4.079e-04   3.493e-04    -3.389    -3.457    -0.067    -18.13
   CaHCO3+         3.648e-06   3.510e-06    -5.438    -5.455    -0.017      9.67
   CaCO3           2.167e-07   2.167e-07    -6.664    -6.664     0.000    -14.60
   CaOH+           6.029e-10   5.797e-10    -9.220    -9.237    -0.017     (0)  
H(0)          4.197e-39
   H2              2.098e-39   2.099e-39   -38.678   -38.678     0.000     28.61
O(0)          1.892e-15
   O2              9.460e-16   9.462e-16   -15.024   -15.024     0.000     30.40

------------------------------Saturation indices-------------------------------

	Phase               SI   log IAP   log K(298 K,   1 atm)

	Aragonite        -1.55     -9.89   -8.34  CaCO3
	Calcite          -1.41     -9.89   -8.48  CaCO3
	CH4(g)         -118.63   -121.47   -2.84  CH4
	CO2(g)           -2.29     -3.75   -1.46  CO2
	H2(g)           -35.58    -38.68   -3.10  H2
	H2O(g)           -1.50     -0.00    1.50  H2O
	O2(g)           -12.13    -15.02   -2.89  O2


Using solution 19.	
Using surface 19.	

------------------------------Surface composition------------------------------

Solid         
	  0.000e+00  Surface charge, eq
	  0.000e+00  sigma, C/m**2
	  0.000e+00  psi, V
	 -0.000e+00  -F*psi/RT
	  1.000e+00  exp(-F*psi/RT)
	  1.000e+00  specific area, m**2/g
	 1.000e+100  m**2 for  1.000e+100 g


Solid         
	 1.000e+100  moles
	                                   Mole                     Log
	Species               Moles    Fraction    Molality    Molality

	Solid            1.000e+100       1.000  1.000e+100     100.000

-----------------------------Solution composition------------------------------

	Elements           Molality       Moles

	C                 1.000e-03   1.000e-03
	Ca                4.118e-04   4.118e-04

----------------------------Description of solution----------------------------

                                       pH  =   7.000      Charge balance
[...]
O(0)          3.253e-13
   O2              1.627e-13   1.628e-13   -12.789   -12.788     0.000     30.40
[224Ra]       2.071e-09
   [224Ra]         2.071e-09   2.073e-09    -8.684    -8.683     0.000     (0)  

------------------------------Saturation indices-------------------------------

	Phase               SI   log IAP   log K(298 K,   1 atm)

	Aragonite        -1.25     -9.59   -8.34  CaCO3
	Calcite          -1.11     -9.59   -8.48  CaCO3
	CH4(g)         -123.11   -125.95   -2.84  CH4
	CO2(g)           -2.30     -3.76   -1.46  CO2
	H2(g)           -36.69    -39.80   -3.10  H2
	H2O(g)           -1.50     -0.00    1.50  H2O
	O2(g)            -9.90    -12.79   -2.89  O2


Using mix 42.	
Using surface 42.	
Using kinetics 42.	

Mixture 42.	

	  2.150e-01 Solution 41	Solution after simulation 5.                           
	  5.700e-01 Solution 42	Solution after simulation 5.                           
	  2.150e-01 Solution 43	Solution after simulation 5.                           

Kinetics 42.	

	Time:      720000 seconds
	Time step: 72000 seconds

	Rate name       Delta Moles Total Moles   Reactant        Coefficient

	Add_Ra           -8.333e-09   1.000e+00   [224Ra]                   1
	Decay_Ra          8.255e-09   1.000e+00   [224Ra]                   1

------------------------------Surface composition------------------------------

Solid         
	  0.000e+00  Surface charge, eq
	  0.000e+00  sigma, C/m**2
	  0.000e+00  psi, V
	 -0.000e+00  -F*psi/RT
	  1.000e+00  exp(-F*psi/RT)
	  1.000e+00  specific area, m**2/g
	 1.000e+100  m**2 for  1.000e+100 g


Solid         
	 1.000e+100  moles
	                                   Mole                     Log
	Species               Moles    Fraction    Molality    Molality

	Solid            1.000e+100       1.000  1.000e+100     100.000
	Solid[224Ra]      5.059e-08       0.000   5.059e-08      -7.296

-----------------------------Solution composition------------------------------

	Elements           Molality       Moles

	C                 1.000e-03   1.000e-03
	Ca                9.079e-04   9.079e-04
	Cl                9.886e-04   9.886e-04
	[224Ra]           2.534e-09   2.534e-09

----------------------------Description of solution----------------------------

                                       pH  =   7.000      Charge balance
                                       pe  =  11.248      Adjusted to redox equilibrium
       Specific Conductance (uS/cm, 25 oC) = 205
                          Density (g/cm3)  =   0.99715
                               Volume (L)  =   1.00304
                        Activity of water  =   1.000
                           Ionic strength  =   2.708e-03
                       Mass of water (kg)  =   1.000e+00
                 Total alkalinity (eq/kg)  =   8.271e-04
                       Total CO2 (mol/kg)  =   1.000e-03
                      Temperature (deg C)  =  25.00
                  Electrical balance (eq)  =   1.021e-13
 Percent error, 100*(Cat-|An|)/(Cat+|An|)  =   0.00
                               Iterations  =  15
                                  Total H  = 1.110133e+02
                                  Total O  = 5.550904e+01

----------------------------Distribution of species----------------------------

                                               Log       Log       Log    mole V
   Species          Molality    Activity  Molality  Activity     Gamma   cm3/mol

   OH-             1.072e-07   1.012e-07    -6.970    -6.995    -0.025     -4.09
   H+              1.054e-07   1.000e-07    -6.977    -7.000    -0.023      0.00
   H2O             5.551e+01   1.000e+00     1.744    -0.000     0.000     18.07
C(-4)         0.000e+00
   CH4             0.000e+00   0.000e+00  -125.350  -125.350     0.000     32.22
C(4)          1.000e-03
   HCO3-           8.178e-04   7.733e-04    -3.087    -3.112    -0.024     24.62
   CO2             1.738e-04   1.739e-04    -3.760    -3.760     0.000     30.26
   CaHCO3+         7.501e-06   7.096e-06    -5.125    -5.149    -0.024      9.69
   CO3-2           4.536e-07   3.627e-07    -6.343    -6.441    -0.097     -4.29
   CaCO3           4.379e-07   4.382e-07    -6.359    -6.358     0.000    -14.60
Ca            9.079e-04
   Ca+2            8.999e-04   7.192e-04    -3.046    -3.143    -0.097    -18.07
   CaHCO3+         7.501e-06   7.096e-06    -5.125    -5.149    -0.024      9.69
   CaCO3           4.379e-07   4.382e-07    -6.359    -6.358     0.000    -14.60
   CaOH+           1.264e-09   1.193e-09    -8.898    -8.923    -0.025     (0)  
Cl            9.886e-04
   Cl-             9.886e-04   9.335e-04    -3.005    -3.030    -0.025     18.09
H(0)          4.525e-40
   H2              2.262e-40   2.264e-40   -39.645   -39.645     0.000     28.61
O(0)          1.626e-13
   O2              8.129e-14   8.134e-14   -13.090   -13.090     0.000     30.40
[224Ra]       2.534e-09
   [224Ra]         2.534e-09   2.536e-09    -8.596    -8.596     0.000     (0)  

------------------------------Saturation indices-------------------------------

	Phase               SI   log IAP   log K(298 K,   1 atm)

	Aragonite        -1.25     -9.58   -8.34  CaCO3
	Calcite          -1.10     -9.58   -8.48  CaCO3
	CH4(g)         -122.51   -125.35   -2.84  CH4
	CO2(g)           -2.30     -3.76   -1.46  CO2
	H2(g)           -36.54    -39.65   -3.10  H2
	H2O(g)           -1.50     -0.00    1.50  H2O
	O2(g)           -10.20    -13.09   -2.89  O2


Using mix 43.	
Using surface 43.	
Using kinetics 43.	

Mixture 43.	

	  2.150e-01 Solution 42	Solution after simulation 5.                           
	  5.700e-01 Solution 43	Solution after simulation 5.                           
	  2.150e-01 Solution 44	Solution after simulation 5.                           

Kinetics 43.	

	Time:      720000 seconds
	Time step: 72000 seconds

	Rate name       Delta Moles Total Moles   Reactant        Coefficient

	Add_Ra           -8.333e-09   1.000e+00   [224Ra]                   1
	Decay_Ra          2.068e-08   1.000e+00   [224Ra]                   1

------------------------------Surface composition------------------------------

Solid         
	  0.000e+00  Surface charge, eq
	  0.000e+00  sigma, C/m**2
	  0.000e+00  psi, V
	 -0.000e+00  -F*psi/RT
	  1.000e+00  exp(-F*psi/RT)
	  1.000e+00  specific area, m**2/g
	 1.000e+100  m**2 for  1.000e+100 g


Solid         
	 1.000e+100  moles
	                                   Mole                     Log
	Species               Moles    Fraction    Molality    Molality

	Solid            1.000e+100       1.000  1.000e+100     100.000
	Solid[224Ra]      1.222e-07       0.000   1.222e-07      -6.913

-----------------------------Solution composition------------------------------

	Elements           Molality       Moles

	C                 1.000e-03   1.000e-03
	Ca                9.116e-04   9.116e-04
	Cl                9.960e-04   9.960e-04
	[224Ra]           6.122e-09   6.122e-09

----------------------------Description of solution----------------------------

                                       pH  =   7.000      Charge balance
                                       pe  =  11.173      Adjusted to redox equilibrium
       Specific Conductance (uS/cm, 25 oC) = 206
                          Density (g/cm3)  =   0.99715
                               Volume (L)  =   1.00304
                        Activity of water  =   1.000
                           Ionic strength  =   2.719e-03
                       Mass of water (kg)  =   1.000e+00
                 Total alkalinity (eq/kg)  =   8.271e-04
                       Total CO2 (mol/kg)  =   1.000e-03
                      Temperature (deg C)  =  25.00
                  Electrical balance (eq)  =   2.592e-14
 Percent error, 100*(Cat-|An|)/(Cat+|An|)  =   0.00
                               Iterations  =  25
                                  Total H  = 1.110133e+02
                                  Total O  = 5.550904e+01

----------------------------Distribution of species----------------------------

                                               Log       Log       Log    mole V
   Species          Molality    Activity  Molality  Activity     Gamma   cm3/mol

   OH-             1.072e-07   1.012e-07    -6.970    -6.995    -0.025     -4.09
   H+              1.055e-07   1.000e-07    -6.977    -7.000    -0.023      0.00
   H2O             5.551e+01   1.000e+00     1.744    -0.000     0.000     18.07
C(-4)         0.000e+00
   CH4             0.000e+00   0.000e+00  -124.757  -124.757     0.000     32.22
C(4)          1.000e-03
   HCO3-           8.178e-04   7.732e-04    -3.087    -3.112    -0.024     24.62
   CO2             1.738e-04   1.739e-04    -3.760    -3.760     0.000     30.26
   CaHCO3+         7.528e-06   7.121e-06    -5.123    -5.147    -0.024      9.69
   CO3-2           4.538e-07   3.626e-07    -6.343    -6.441    -0.097     -4.29
   CaCO3           4.395e-07   4.397e-07    -6.357    -6.357     0.000    -14.60
Ca            9.116e-04
   Ca+2            9.036e-04   7.218e-04    -3.044    -3.142    -0.098    -18.07
   CaHCO3+         7.528e-06   7.121e-06    -5.123    -5.147    -0.024      9.69
   CaCO3           4.395e-07   4.397e-07    -6.357    -6.357     0.000    -14.60
   CaOH+           1.268e-09   1.198e-09    -8.897    -8.922    -0.025     (0)  
Cl            9.960e-04
   Cl-             9.960e-04   9.403e-04    -3.002    -3.027    -0.025     18.09
H(0)          6.367e-40
   H2              3.184e-40   3.186e-40   -39.497   -39.497     0.000     28.61
O(0)          8.210e-14
   O2              4.105e-14   4.108e-14   -13.387   -13.386     0.000     30.40
[224Ra]       6.122e-09
   [224Ra]         6.122e-09   6.126e-09    -8.213    -8.213     0.000     (0)  

------------------------------Saturation indices-------------------------------

	Phase               SI   log IAP   log K(298 K,   1 atm)

	Aragonite        -1.25     -9.58   -8.34  CaCO3
	Calcite          -1.10     -9.58   -8.48  CaCO3
	CH4(g)         -121.91   -124.76   -2.84  CH4
	CO2(g)           -2.30     -3.76   -1.46  CO2
	H2(g)           -36.40    -39.50   -3.10  H2
	H2O(g)           -1.50     -0.00    1.50  H2O
	O2(g)           -10.49    -13.39   -2.89  O2


Using mix 44.	
Using surface 44.	
Using kinetics 44.	

Mixture 44.	

	  2.150e-01 Solution 43	Solution after simulation 5.                           
	  5.700e-01 Solution 44	Solution after simulation 5.                           
	  2.150e-01 Solution 45	Solution after simulation 5.                           

Kinetics 44.	

	Time:      720000 seconds
	Time step: 72000 seconds

	Rate name       Delta Moles Total Moles   Reactant        Coefficient

	Add_Ra           -8.333e-09   1.000e+00   [224Ra]                   1
	Decay_Ra          9.569e-08   1.000e+00   [224Ra]                   1

------------------------------Surface composition------------------------------

Solid         
	  0.000e+00  Surface charge, eq
	  0.000e+00  sigma, C/m**2
	  0.000e+00  psi, V
	 -0.000e+00  -F*psi/RT
	  1.000e+00  exp(-F*psi/RT)
	  1.000e+00  specific area, m**2/g
	 1.000e+100  m**2 for  1.000e+100 g


Solid         
	 1.000e+100  moles
	                                   Mole                     Log
	Species               Moles    Fraction    Molality    Molality

	Solid            1.000e+100       1.000  1.000e+100     100.000
	Solid[224Ra]      5.559e-07       0.000   5.559e-07      -6.255

-----------------------------Solution composition------------------------------

	Elements           Molality       Moles

	C                 1.000e-03   1.000e-03
	Ca                9.130e-04   9.130e-04
	Cl                9.988e-04   9.988e-04
	[224Ra]           2.784e-08   2.784e-08

----------------------------Description of solution----------------------------

                                       pH  =   7.000      Charge balance
                                       pe  =  11.040      Adjusted to redox equilibrium
       Specific Conductance (uS/cm, 25 oC) = 207
                          Density (g/cm3)  =   0.99715
                               Volume (L)  =   1.00304
                        Activity of water  =   1.000
                           Ionic strength  =   2.723e-03
                       Mass of water (kg)  =   1.000e+00
                 Total alkalinity (eq/kg)  =   8.272e-04
                       Total CO2 (mol/kg)  =   1.000e-03
                      Temperature (deg C)  =  25.00
                  Electrical balance (eq)  =   1.971e-15
 Percent error, 100*(Cat-|An|)/(Cat+|An|)  =   0.00
                               Iterations  =  40
                                  Total H  = 1.110133e+02
                                  Total O  = 5.550904e+01

----------------------------Distribution of species----------------------------

                                               Log       Log       Log    mole V
   Species          Molality    Activity  Molality  Activity     Gamma   cm3/mol

   OH-             1.072e-07   1.012e-07    -6.970    -6.995    -0.025     -4.09
   H+              1.055e-07   1.000e-07    -6.977    -7.000    -0.023      0.00
   H2O             5.551e+01   1.000e+00     1.744    -0.000     0.000     18.07
C(-4)         0.000e+00
   CH4             0.000e+00   0.000e+00  -123.687  -123.687     0.000     32.22
C(4)          1.000e-03
   HCO3-           8.178e-04   7.732e-04    -3.087    -3.112    -0.024     24.62
   CO2             1.737e-04   1.739e-04    -3.760    -3.760     0.000     30.26
   CaHCO3+         7.538e-06   7.131e-06    -5.123    -5.147    -0.024      9.69
   CO3-2           4.538e-07   3.626e-07    -6.343    -6.441    -0.097     -4.29
   CaCO3           4.401e-07   4.403e-07    -6.356    -6.356     0.000    -14.60
Ca            9.130e-04
   Ca+2            9.050e-04   7.229e-04    -3.043    -3.141    -0.098    -18.07
   CaHCO3+         7.538e-06   7.131e-06    -5.123    -5.147    -0.024      9.69
   CaCO3           4.401e-07   4.403e-07    -6.356    -6.356     0.000    -14.60
   CaOH+           1.270e-09   1.200e-09    -8.896    -8.921    -0.025     (0)  
Cl            9.988e-04
   Cl-             9.988e-04   9.430e-04    -3.001    -3.026    -0.025     18.09
H(0)          1.179e-39
   H2              5.894e-40   5.898e-40   -39.230   -39.229     0.000     28.61
O(0)          2.395e-14
   O2              1.197e-14   1.198e-14   -13.922   -13.921     0.000     30.40
[224Ra]       2.784e-08
   [224Ra]         2.784e-08   2.786e-08    -7.555    -7.555     0.000     (0)  

------------------------------Saturation indices-------------------------------

	Phase               SI   log IAP   log K(298 K,   1 atm)

	Aragonite        -1.25     -9.58   -8.34  CaCO3
	Calcite          -1.10     -9.58   -8.48  CaCO3
	CH4(g)         -120.84   -123.69   -2.84  CH4
	CO2(g)           -2.30     -3.76   -1.46  CO2
	H2(g)           -36.13    -39.23   -3.10  H2
	H2O(g)           -1.50     -0.00    1.50  H2O
	O2(g)           -11.03    -13.92   -2.89  O2


Using mix 45.	
Using surface 45.	
Using kinetics 45.	

Mixture 45.	

	  2.150e-01 Solution 44	Solution after simulation 5.                           
	  7.850e-01 Solution 45	Solution after simulation 5.                           
	  0.000e+00 Solution 46	Solution after simulation 5.                           

Kinetics 45.	

	Time:      720000 seconds
	Time step: 72000 seconds

	Rate name       Delta Moles Total Moles   Reactant        Coefficient

	Add_Ra           -8.333e-09   1.000e+00   [224Ra]                   1
	Decay_Ra          4.526e-07   1.000e+00   [224Ra]                   1

------------------------------Surface composition------------------------------

Solid         
	  0.000e+00  Surface charge, eq
	  0.000e+00  sigma, C/m**2
	  0.000e+00  psi, V
	 -0.000e+00  -F*psi/RT
	  1.000e+00  exp(-F*psi/RT)
	  1.000e+00  specific area, m**2/g
	 1.000e+100  m**2 for  1.000e+100 g


Solid         
	 1.000e+100  moles
	                                   Mole                     Log
	Species               Moles    Fraction    Molality    Molality

	Solid            1.000e+100       1.000  1.000e+100     100.000
	Solid[224Ra]      2.594e-06       0.000   2.594e-06      -5.586

-----------------------------Solution composition------------------------------

	Elements           Molality       Moles

	C                 1.000e-03   1.000e-03
	Ca                9.134e-04   9.134e-04
	Cl                9.997e-04   9.997e-04
	[224Ra]           1.299e-07   1.299e-07

----------------------------Description of solution----------------------------

                                       pH  =   7.000      Charge balance
                                       pe  =  10.976      Adjusted to redox equilibrium
       Specific Conductance (uS/cm, 25 oC) = 207
                          Density (g/cm3)  =   0.99715
                               Volume (L)  =   1.00304
                        Activity of water  =   1.000
                           Ionic strength  =   2.724e-03
                       Mass of water (kg)  =   1.000e+00
                 Total alkalinity (eq/kg)  =   8.272e-04
                       Total CO2 (mol/kg)  =   1.000e-03
                      Temperature (deg C)  =  25.00
                  Electrical balance (eq)  =  -1.180e-15
 Percent error, 100*(Cat-|An|)/(Cat+|An|)  =  -0.00
                               Iterations  =  40
                                  Total H  = 1.110133e+02
                                  Total O  = 5.550904e+01

----------------------------Distribution of species----------------------------

                                               Log       Log       Log    mole V
   Species          Molality    Activity  Molality  Activity     Gamma   cm3/mol

   OH-             1.072e-07   1.012e-07    -6.970    -6.995    -0.025     -4.09
   H+              1.055e-07   1.000e-07    -6.977    -7.000    -0.023      0.00
   H2O             5.551e+01   1.000e+00     1.744    -0.000     0.000     18.07
C(-4)         0.000e+00
   CH4             0.000e+00   0.000e+00  -123.176  -123.176     0.000     32.22
C(4)          1.000e-03
   HCO3-           8.178e-04   7.732e-04    -3.087    -3.112    -0.024     24.62
   CO2             1.737e-04   1.739e-04    -3.760    -3.760     0.000     30.26
   CaHCO3+         7.542e-06   7.134e-06    -5.123    -5.147    -0.024      9.69
   CO3-2           4.538e-07   3.626e-07    -6.343    -6.441    -0.097     -4.29
   CaCO3           4.402e-07   4.405e-07    -6.356    -6.356     0.000    -14.60
Ca            9.134e-04
   Ca+2            9.055e-04   7.232e-04    -3.043    -3.141    -0.098    -18.07
   CaHCO3+         7.542e-06   7.134e-06    -5.123    -5.147    -0.024      9.69
   CaCO3           4.402e-07   4.405e-07    -6.356    -6.356     0.000    -14.60
   CaOH+           1.271e-09   1.200e-09    -8.896    -8.921    -0.025     (0)  
Cl            9.997e-04
   Cl-             9.997e-04   9.438e-04    -3.000    -3.025    -0.025     18.09
H(0)          1.582e-39
   H2              7.910e-40   7.915e-40   -39.102   -39.102     0.000     28.61
O(0)          1.330e-14
   O2              6.649e-15   6.653e-15   -14.177   -14.177     0.000     30.40
[224Ra]       1.299e-07
   [224Ra]         1.299e-07   1.300e-07    -6.886    -6.886     0.000     (0)  

------------------------------Saturation indices-------------------------------

	Phase               SI   log IAP   log K(298 K,   1 atm)

	Aragonite        -1.25     -9.58   -8.34  CaCO3
	Calcite          -1.10     -9.58   -8.48  CaCO3
	CH4(g)         -120.33   -123.18   -2.84  CH4
	CO2(g)           -2.30     -3.76   -1.46  CO2
	H2(g)           -36.00    -39.10   -3.10  H2
	H2O(g)           -1.50     -0.00    1.50  H2O
	O2(g)           -11.28    -14.18   -2.89  O2


------------------
End of simulation.
------------------

------------------------------------
Reading input data for simulation 6.
------------------------------------

------------------------------
End of Run after 1.11 Seconds.
------------------------------

