   Input file: lam7
  Output file: lam7.out
Database file: ../database/wateq4f.dat

------------------
Reading data base.
------------------

	SOLUTION_MASTER_SPECIES
	SOLUTION_SPECIES
	PHASES
	EXCHANGE_MASTER_SPECIES
	EXCHANGE_SPECIES
	SURFACE_MASTER_SPECIES
	SURFACE_SPECIES
	RATES
	END
------------------------------------
Reading input data for simulation 1.
------------------------------------

	DATABASE ../database/wateq4f.dat
	knobs
		convergence_tolerance	1e-10
		iterations 200
		step_size	10
		pe_step_size	3
		logfile
	TITLE Part 1.--Equilibration of ambient solution with exchange assemblage
	SOLUTION 1  Ambient Groundwater--Active aquitard
	        units   ppm
	        pH      7.75
	        temp    25.0
	        Ca              155.
	        Mg              67.7
	        Na              63.35
	        K               2.8
	        Fe              0.036
	        Mn              0.115
	        Cl              19.5
	        Alkalinity      584.    as CaCO3
	        S(6)            289.    charge
	        N(5)            0.078   as NO3
	        F               2.10
	        Al              0.041
	        Ba              0.050
	        B               0.206
	        Cu              0.001
	        Ni              0.005
	        P               0.548
	        Sr              1.663
	        Zn              0.003
	EXCHANGE 1
	        equilibrate with solution 1
	        X       1.0
	SURFACE  1
	        equilibrate with solution 1
	        Hfo_w    0.5     600.     0.33
	USE exchange none
	USE surface none
	END
-----
TITLE
-----

 Part 1.--Equilibration of ambient solution with exchange assemblage

-------------------------------------------
Beginning of initial solution calculations.
-------------------------------------------

Initial solution 1.	Ambient Groundwater--Active aquitard

WARNING: Equivalent wt for alkalinity should be Ca.5(CO3).5. Using 50.0455 g/eq.
-----------------------------Solution composition------------------------------

	Elements           Molality       Moles

	Al                1.521e-06   1.521e-06
	Alkalinity        1.168e-02   1.168e-02
	B                 1.908e-05   1.908e-05
	Ba                3.645e-07   3.645e-07
	Ca                3.872e-03   3.872e-03
	Cl                5.507e-04   5.507e-04
	Cu                1.576e-08   1.576e-08
	F                 1.107e-04   1.107e-04
	Fe                6.454e-07   6.454e-07
	K                 7.169e-05   7.169e-05
	Mg                2.788e-03   2.788e-03
	Mn                2.096e-06   2.096e-06
	N(5)              1.259e-06   1.259e-06
	Na                2.759e-03   2.759e-03
	Ni                8.527e-08   8.527e-08
	P                 1.771e-05   1.771e-05
	S(6)              1.918e-03   1.918e-03  Charge balance
	Sr                1.900e-05   1.900e-05
	Zn                4.595e-08   4.595e-08

----------------------------Description of solution----------------------------

                                       pH  =   7.750    
                                       pe  =   4.000    
                        Activity of water  =   1.000
                           Ionic strength  =   2.138e-02
                       Mass of water (kg)  =   1.000e+00
                    Total carbon (mol/kg)  =   1.188e-02
                       Total CO2 (mol/kg)  =   1.188e-02
                      Temperature (deg C)  =  25.000
                  Electrical balance (eq)  =  -2.252e-17
 Percent error, 100*(Cat-|An|)/(Cat+|An|)  =  -0.00
                               Iterations  =  11
                                  Total H  = 1.110239e+02
                                  Total O  = 5.554929e+01

----------------------------Distribution of species----------------------------

	                                           Log       Log         Log 
	Species            Molality    Activity  Molality  Activity     Gamma

	OH-               6.486e-07   5.627e-07    -6.188    -6.250    -0.062
	H+                2.004e-08   1.778e-08    -7.698    -7.750    -0.052
	H2O               5.551e+01   9.996e-01     1.744    -0.000     0.000
Al               1.521e-06
	Al(OH)4-          1.507e-06   1.307e-06    -5.822    -5.884    -0.062
	Al(OH)3           1.228e-08   1.234e-08    -7.911    -7.909     0.002
	Al(OH)2+          1.717e-09   1.490e-09    -8.765    -8.827    -0.062
	AlF2+             2.629e-10   2.281e-10    -9.580    -9.642    -0.062
	AlF3              2.477e-10   2.490e-10    -9.606    -9.604     0.002
	AlF4-             9.905e-12   8.593e-12   -11.004   -11.066    -0.062
	AlF+2             9.268e-12   5.250e-12   -11.033   -11.280    -0.247
	AlOH+2            5.969e-12   3.381e-12   -11.224   -11.471    -0.247
	Al+3              2.175e-14   6.056e-15   -13.663   -14.218    -0.555
	AlSO4+            1.729e-14   1.500e-14   -13.762   -13.824    -0.062
	Al(SO4)2-         4.283e-16   3.716e-16   -15.368   -15.430    -0.062
	AlHSO4+2          4.175e-23   2.365e-23   -22.379   -22.626    -0.247
B                1.908e-05
	H3BO3             1.839e-05   1.848e-05    -4.735    -4.733     0.002
	H2BO3-            6.893e-07   5.980e-07    -6.162    -6.223    -0.062
	BF(OH)3-          7.352e-10   6.378e-10    -9.134    -9.195    -0.062
	BF2(OH)2-         1.215e-13   1.054e-13   -12.915   -12.977    -0.062
	BF3OH-            2.054e-19   1.782e-19   -18.687   -18.749    -0.062
	BF4-              1.291e-24   1.120e-24   -23.889   -23.951    -0.062
Ba               3.645e-07
	Ba+2              2.830e-07   1.603e-07    -6.548    -6.795    -0.247
	BaSO4             6.262e-08   6.293e-08    -7.203    -7.201     0.002
	BaHCO3+           1.684e-08   1.461e-08    -7.774    -7.835    -0.062
	BaCO3             2.066e-09   2.076e-09    -8.685    -8.683     0.002
	BaOH+             3.519e-13   3.053e-13   -12.454   -12.515    -0.062
C(4)             1.188e-02
	HCO3-             1.089e-02   9.507e-03    -1.963    -2.022    -0.059
	CO2               3.784e-04   3.802e-04    -3.422    -3.420     0.002
	CaHCO3+           2.620e-04   2.273e-04    -3.582    -3.643    -0.062
	MgHCO3+           1.745e-04   1.514e-04    -3.758    -3.820    -0.062
	CaCO3             7.836e-05   7.875e-05    -4.106    -4.104     0.002
	CO3-2             4.322e-05   2.507e-05    -4.364    -4.601    -0.237
	MgCO3             3.240e-05   3.256e-05    -4.489    -4.487     0.002
	NaHCO3            1.264e-05   1.270e-05    -4.898    -4.896     0.002
	SrHCO3+           1.542e-06   1.346e-06    -5.812    -5.871    -0.059
	NaCO3-            1.279e-06   1.109e-06    -5.893    -5.955    -0.062
	MnCO3             8.534e-07   8.576e-07    -6.069    -6.067     0.002
	MnHCO3+           4.206e-07   3.649e-07    -6.376    -6.438    -0.062
	SrCO3             1.481e-07   1.481e-07    -6.829    -6.829     0.000
	NiCO3             7.780e-08   7.819e-08    -7.109    -7.107     0.002
	ZnCO3             1.739e-08   1.747e-08    -7.760    -7.758     0.002
	BaHCO3+           1.684e-08   1.461e-08    -7.774    -7.835    -0.062
	Zn(CO3)2-2        1.653e-08   9.365e-09    -7.782    -8.028    -0.247
	FeHCO3+           1.172e-08   1.017e-08    -7.931    -7.993    -0.062
	CuCO3             9.804e-09   9.852e-09    -8.009    -8.006     0.002
	FeCO3             6.403e-09   6.434e-09    -8.194    -8.191     0.002
	Ni(CO3)2-2        6.013e-09   3.407e-09    -8.221    -8.468    -0.247
	ZnHCO3+           4.818e-09   4.180e-09    -8.317    -8.379    -0.062
	BaCO3             2.066e-09   2.076e-09    -8.685    -8.683     0.002
	NiHCO3+           6.363e-10   5.521e-10    -9.196    -9.258    -0.062
	Cu(CO3)2-2        5.489e-10   3.110e-10    -9.260    -9.507    -0.247
	CuHCO3+           4.019e-10   3.487e-10    -9.396    -9.458    -0.062
Ca               3.872e-03
	Ca+2              3.233e-03   1.875e-03    -2.490    -2.727    -0.237
	CaSO4             2.916e-04   2.930e-04    -3.535    -3.533     0.002
	CaHCO3+           2.620e-04   2.273e-04    -3.582    -3.643    -0.062
	CaCO3             7.836e-05   7.875e-05    -4.106    -4.104     0.002
	CaHPO4            4.053e-06   4.073e-06    -5.392    -5.390     0.002
	CaF+              1.632e-06   1.416e-06    -5.787    -5.849    -0.062
	CaPO4-            6.247e-07   5.419e-07    -6.204    -6.266    -0.062
	CaH2PO4+          6.276e-08   5.444e-08    -7.202    -7.264    -0.062
	CaOH+             2.016e-08   1.749e-08    -7.695    -7.757    -0.062
	CaHSO4+           3.519e-11   3.053e-11   -10.454   -10.515    -0.062
Cl               5.507e-04
	Cl-               5.507e-04   4.758e-04    -3.259    -3.323    -0.063
	MnCl+             9.622e-10   8.348e-10    -9.017    -9.078    -0.062
	FeCl+             8.100e-12   7.027e-12   -11.092   -11.153    -0.062
	ZnCl+             5.156e-12   4.473e-12   -11.288   -11.349    -0.062
	ZnOHCl            3.078e-12   3.094e-12   -11.512   -11.510     0.002
	NiCl+             5.796e-13   5.028e-13   -12.237   -12.299    -0.062
	CuCl2-            3.170e-13   2.750e-13   -12.499   -12.561    -0.062
	MnCl2             1.725e-13   1.734e-13   -12.763   -12.761     0.002
	CuCl+             1.080e-13   9.372e-14   -12.966   -13.028    -0.062
	ZnCl2             2.218e-15   2.229e-15   -14.654   -14.652     0.002
	NiCl2             8.645e-16   8.687e-16   -15.063   -15.061     0.002
	CuCl3-2           3.661e-16   2.074e-16   -15.436   -15.683    -0.247
	MnCl3-            2.619e-17   2.272e-17   -16.582   -16.644    -0.062
	CuCl2             2.383e-17   2.395e-17   -16.623   -16.621     0.002
	ZnCl3-            1.372e-18   1.190e-18   -17.863   -17.924    -0.062
	FeCl+2            2.592e-19   1.468e-19   -18.586   -18.833    -0.247
	ZnCl4-2           5.010e-22   2.838e-22   -21.300   -21.547    -0.247
	FeCl2+            3.597e-22   3.121e-22   -21.444   -21.506    -0.062
	CuCl3-            4.661e-23   4.044e-23   -22.332   -22.393    -0.062
	FeCl3             1.478e-26   1.485e-26   -25.830   -25.828     0.002
	CuCl4-2           1.702e-28   9.643e-29   -27.769   -28.016    -0.247
Cu(1)            4.744e-12
	Cu+               4.427e-12   3.840e-12   -11.354   -11.416    -0.062
	CuCl2-            3.170e-13   2.750e-13   -12.499   -12.561    -0.062
	CuCl3-2           3.661e-16   2.074e-16   -15.436   -15.683    -0.247
Cu(2)            1.575e-08
	CuCO3             9.804e-09   9.852e-09    -8.009    -8.006     0.002
	Cu(OH)2           4.807e-09   4.831e-09    -8.318    -8.316     0.002
	Cu(CO3)2-2        5.489e-10   3.110e-10    -9.260    -9.507    -0.247
	CuHCO3+           4.019e-10   3.487e-10    -9.396    -9.458    -0.062
	Cu+2              1.292e-10   7.318e-11    -9.889   -10.136    -0.247
	CuOH+             4.741e-11   4.113e-11   -10.324   -10.386    -0.062
	CuSO4             1.165e-11   1.170e-11   -10.934   -10.932     0.002
	CuF+              1.331e-13   1.154e-13   -12.876   -12.938    -0.062
	CuCl+             1.080e-13   9.372e-14   -12.966   -13.028    -0.062
	Cu(OH)3-          1.886e-14   1.636e-14   -13.724   -13.786    -0.062
	Cu2(OH)2+2        1.307e-15   7.404e-16   -14.884   -15.131    -0.247
	CuCl2             2.383e-17   2.395e-17   -16.623   -16.621     0.002
	Cu(OH)4-2         3.240e-19   1.835e-19   -18.490   -18.736    -0.247
	CuCl3-            4.661e-23   4.044e-23   -22.332   -22.393    -0.062
	CuCl4-2           1.702e-28   9.643e-29   -27.769   -28.016    -0.247
F                1.107e-04
	F-                9.993e-05   8.669e-05    -4.000    -4.062    -0.062
	MgF+              8.985e-06   7.795e-06    -5.046    -5.108    -0.062
	CaF+              1.632e-06   1.416e-06    -5.787    -5.849    -0.062
	NaF               1.180e-07   1.186e-07    -6.928    -6.926     0.002
	HF                2.301e-09   2.312e-09    -8.638    -8.636     0.002
	BF(OH)3-          7.352e-10   6.378e-10    -9.134    -9.195    -0.062
	MnF+              2.977e-10   2.583e-10    -9.526    -9.588    -0.062
	AlF2+             2.629e-10   2.281e-10    -9.580    -9.642    -0.062
	AlF3              2.477e-10   2.490e-10    -9.606    -9.604     0.002
	FeF+              1.069e-11   9.275e-12   -10.971   -11.033    -0.062
	AlF4-             9.905e-12   8.593e-12   -11.004   -11.066    -0.062
	AlF+2             9.268e-12   5.250e-12   -11.033   -11.280    -0.247
	ZnF+              4.930e-12   4.277e-12   -11.307   -11.369    -0.062
	HF2-              8.865e-13   7.691e-13   -12.052   -12.114    -0.062
	NiF+              8.388e-13   7.277e-13   -12.076   -12.138    -0.062
	CuF+              1.331e-13   1.154e-13   -12.876   -12.938    -0.062
	BF2(OH)2-         1.215e-13   1.054e-13   -12.915   -12.977    -0.062
	FeF2+             5.585e-15   4.845e-15   -14.253   -14.315    -0.062
	FeF+2             2.478e-15   1.404e-15   -14.606   -14.853    -0.247
	FeF3              6.624e-16   6.657e-16   -15.179   -15.177     0.002
	H2F2              1.386e-17   1.393e-17   -16.858   -16.856     0.002
	BF3OH-            2.054e-19   1.782e-19   -18.687   -18.749    -0.062
	BF4-              1.291e-24   1.120e-24   -23.889   -23.951    -0.062
Fe(2)            3.891e-08
	Fe+2              1.889e-08   1.070e-08    -7.724    -7.971    -0.247
	FeHCO3+           1.172e-08   1.017e-08    -7.931    -7.993    -0.062
	FeCO3             6.403e-09   6.434e-09    -8.194    -8.191     0.002
	FeSO4             1.483e-09   1.490e-09    -8.829    -8.827     0.002
	FeOH+             2.192e-10   1.902e-10    -9.659    -9.721    -0.062
	FeHPO4            1.679e-10   1.688e-10    -9.775    -9.773     0.002
	FeF+              1.069e-11   9.275e-12   -10.971   -11.033    -0.062
	FeCl+             8.100e-12   7.027e-12   -11.092   -11.153    -0.062
	FeH2PO4+          7.014e-12   6.085e-12   -11.154   -11.216    -0.062
	Fe(OH)2           9.054e-14   9.099e-14   -13.043   -13.041     0.002
	Fe(OH)3-          2.190e-16   1.900e-16   -15.659   -15.721    -0.062
	FeHSO4+           2.008e-16   1.742e-16   -15.697   -15.759    -0.062
Fe(3)            6.065e-07
	Fe(OH)3           4.974e-07   4.998e-07    -6.303    -6.301     0.002
	Fe(OH)2+          7.956e-08   6.902e-08    -7.099    -7.161    -0.062
	Fe(OH)4-          2.954e-08   2.562e-08    -7.530    -7.591    -0.062
	FeOH+2            6.546e-12   3.708e-12   -11.184   -11.431    -0.247
	FeF2+             5.585e-15   4.845e-15   -14.253   -14.315    -0.062
	FeF+2             2.478e-15   1.404e-15   -14.606   -14.853    -0.247
	FeF3              6.624e-16   6.657e-16   -15.179   -15.177     0.002
	FeSO4+            1.011e-16   8.775e-17   -15.995   -16.057    -0.062
	Fe+3              3.670e-17   1.022e-17   -16.435   -16.991    -0.555
	FeHPO4+           1.256e-17   1.090e-17   -16.901   -16.963    -0.062
	FeH2PO4+2         5.509e-18   3.121e-18   -17.259   -17.506    -0.247
	Fe(SO4)2-         1.733e-18   1.504e-18   -17.761   -17.823    -0.062
	FeCl+2            2.592e-19   1.468e-19   -18.586   -18.833    -0.247
	Fe2(OH)2+4        3.593e-21   3.701e-22   -20.444   -21.432    -0.987
	FeCl2+            3.597e-22   3.121e-22   -21.444   -21.506    -0.062
	FeHSO4+2          7.376e-24   4.179e-24   -23.132   -23.379    -0.247
	Fe3(OH)4+5        1.861e-25   5.337e-27   -24.730   -26.273    -1.542
	FeCl3             1.478e-26   1.485e-26   -25.830   -25.828     0.002
H(0)             4.455e-27
	H2                2.228e-27   2.239e-27   -26.652   -26.650     0.002
K                7.169e-05
	K+                7.130e-05   6.161e-05    -4.147    -4.210    -0.063
	KSO4-             3.909e-07   3.391e-07    -6.408    -6.470    -0.062
	KHPO4-            5.487e-10   4.760e-10    -9.261    -9.322    -0.062
Mg               2.788e-03
	Mg+2              2.318e-03   1.361e-03    -2.635    -2.866    -0.231
	MgSO4             2.487e-04   2.499e-04    -3.604    -3.602     0.002
	MgHCO3+           1.745e-04   1.514e-04    -3.758    -3.820    -0.062
	MgCO3             3.240e-05   3.256e-05    -4.489    -4.487     0.002
	MgF+              8.985e-06   7.795e-06    -5.046    -5.108    -0.062
	MgHPO4            3.978e-06   3.998e-06    -5.400    -5.398     0.002
	MgPO4-            6.116e-07   5.306e-07    -6.214    -6.275    -0.062
	MgOH+             3.202e-07   2.778e-07    -6.495    -6.556    -0.062
	MgH2PO4+          5.801e-08   5.033e-08    -7.237    -7.298    -0.062
Mn(2)            2.096e-06
	MnCO3             8.534e-07   8.576e-07    -6.069    -6.067     0.002
	Mn+2              7.602e-07   4.306e-07    -6.119    -6.366    -0.247
	MnHCO3+           4.206e-07   3.649e-07    -6.376    -6.438    -0.062
	MnSO4             5.969e-08   5.998e-08    -7.224    -7.222     0.002
	MnCl+             9.622e-10   8.348e-10    -9.017    -9.078    -0.062
	MnOH+             7.172e-10   6.222e-10    -9.144    -9.206    -0.062
	MnF+              2.977e-10   2.583e-10    -9.526    -9.588    -0.062
	MnCl2             1.725e-13   1.734e-13   -12.763   -12.761     0.002
	MnCl3-            2.619e-17   2.272e-17   -16.582   -16.644    -0.062
	Mn(NO3)2          2.037e-18   2.047e-18   -17.691   -17.689     0.002
	Mn(OH)3-          1.397e-18   1.212e-18   -17.855   -17.916    -0.062
Mn(3)            4.780e-28
	Mn+3              4.780e-28   1.331e-28   -27.321   -27.876    -0.555
Mn(6)            0.000e+00
	MnO4-2            0.000e+00   0.000e+00   -46.560   -46.807    -0.247
Mn(7)            0.000e+00
	MnO4-             0.000e+00   0.000e+00   -52.129   -52.191    -0.062
N(5)             1.259e-06
	NO3-              1.259e-06   1.093e-06    -5.900    -5.962    -0.062
	Mn(NO3)2          2.037e-18   2.047e-18   -17.691   -17.689     0.002
Na               2.759e-03
	Na+               2.734e-03   2.376e-03    -2.563    -2.624    -0.061
	NaHCO3            1.264e-05   1.270e-05    -4.898    -4.896     0.002
	NaSO4-            1.075e-05   9.330e-06    -4.968    -5.030    -0.062
	NaCO3-            1.279e-06   1.109e-06    -5.893    -5.955    -0.062
	NaF               1.180e-07   1.186e-07    -6.928    -6.926     0.002
	NaHPO4-           2.116e-08   1.836e-08    -7.674    -7.736    -0.062
Ni               8.527e-08
	NiCO3             7.780e-08   7.819e-08    -7.109    -7.107     0.002
	Ni(CO3)2-2        6.013e-09   3.407e-09    -8.221    -8.468    -0.247
	Ni+2              7.426e-10   4.207e-10    -9.129    -9.376    -0.247
	NiHCO3+           6.363e-10   5.521e-10    -9.196    -9.258    -0.062
	NiSO4             6.394e-11   6.425e-11   -10.194   -10.192     0.002
	NiOH+             3.763e-12   3.264e-12   -11.425   -11.486    -0.062
	NiF+              8.388e-13   7.277e-13   -12.076   -12.138    -0.062
	NiCl+             5.796e-13   5.028e-13   -12.237   -12.299    -0.062
	Ni(OH)2           1.323e-13   1.329e-13   -12.879   -12.876     0.002
	Ni(SO4)2-2        4.771e-15   2.703e-15   -14.321   -14.568    -0.247
	NiCl2             8.645e-16   8.687e-16   -15.063   -15.061     0.002
	Ni(OH)3-          8.613e-17   7.472e-17   -16.065   -16.127    -0.062
O(0)             1.654e-39
	O2                8.270e-40   8.311e-40   -39.082   -39.080     0.002
P                1.771e-05
	HPO4-2            6.995e-06   3.962e-06    -5.155    -5.402    -0.247
	CaHPO4            4.053e-06   4.073e-06    -5.392    -5.390     0.002
	MgHPO4            3.978e-06   3.998e-06    -5.400    -5.398     0.002
	H2PO4-            1.308e-06   1.135e-06    -5.883    -5.945    -0.062
	CaPO4-            6.247e-07   5.419e-07    -6.204    -6.266    -0.062
	MgPO4-            6.116e-07   5.306e-07    -6.214    -6.275    -0.062
	CaH2PO4+          6.276e-08   5.444e-08    -7.202    -7.264    -0.062
	MgH2PO4+          5.801e-08   5.033e-08    -7.237    -7.298    -0.062
	NaHPO4-           2.116e-08   1.836e-08    -7.674    -7.736    -0.062
	KHPO4-            5.487e-10   4.760e-10    -9.261    -9.322    -0.062
	PO4-3             3.608e-10   1.005e-10    -9.443    -9.998    -0.555
	FeHPO4            1.679e-10   1.688e-10    -9.775    -9.773     0.002
	FeH2PO4+          7.014e-12   6.085e-12   -11.154   -11.216    -0.062
	FeHPO4+           1.256e-17   1.090e-17   -16.901   -16.963    -0.062
	FeH2PO4+2         5.509e-18   3.121e-18   -17.259   -17.506    -0.247
S(6)             1.918e-03
	SO4-2             1.365e-03   7.833e-04    -2.865    -3.106    -0.241
	CaSO4             2.916e-04   2.930e-04    -3.535    -3.533     0.002
	MgSO4             2.487e-04   2.499e-04    -3.604    -3.602     0.002
	NaSO4-            1.075e-05   9.330e-06    -4.968    -5.030    -0.062
	SrSO4             1.406e-06   1.413e-06    -5.852    -5.850     0.002
	KSO4-             3.909e-07   3.391e-07    -6.408    -6.470    -0.062
	BaSO4             6.262e-08   6.293e-08    -7.203    -7.201     0.002
	MnSO4             5.969e-08   5.998e-08    -7.224    -7.222     0.002
	HSO4-             1.561e-09   1.354e-09    -8.807    -8.868    -0.062
	FeSO4             1.483e-09   1.490e-09    -8.829    -8.827     0.002
	ZnSO4             6.382e-10   6.414e-10    -9.195    -9.193     0.002
	NiSO4             6.394e-11   6.425e-11   -10.194   -10.192     0.002
	CaHSO4+           3.519e-11   3.053e-11   -10.454   -10.515    -0.062
	CuSO4             1.165e-11   1.170e-11   -10.934   -10.932     0.002
	Zn(SO4)2-2        7.209e-12   4.084e-12   -11.142   -11.389    -0.247
	AlSO4+            1.729e-14   1.500e-14   -13.762   -13.824    -0.062
	Ni(SO4)2-2        4.771e-15   2.703e-15   -14.321   -14.568    -0.247
	Al(SO4)2-         4.283e-16   3.716e-16   -15.368   -15.430    -0.062
	FeHSO4+           2.008e-16   1.742e-16   -15.697   -15.759    -0.062
	FeSO4+            1.011e-16   8.775e-17   -15.995   -16.057    -0.062
	Fe(SO4)2-         1.733e-18   1.504e-18   -17.761   -17.823    -0.062
	AlHSO4+2          4.175e-23   2.365e-23   -22.379   -22.626    -0.247
	FeHSO4+2          7.376e-24   4.179e-24   -23.132   -23.379    -0.247
Sr               1.900e-05
	Sr+2              1.591e-05   9.254e-06    -4.798    -5.034    -0.235
	SrHCO3+           1.542e-06   1.346e-06    -5.812    -5.871    -0.059
	SrSO4             1.406e-06   1.413e-06    -5.852    -5.850     0.002
	SrCO3             1.481e-07   1.481e-07    -6.829    -6.829     0.000
	SrOH+             3.063e-11   2.668e-11   -10.514   -10.574    -0.060
Zn               4.595e-08
	ZnCO3             1.739e-08   1.747e-08    -7.760    -7.758     0.002
	Zn(CO3)2-2        1.653e-08   9.365e-09    -7.782    -8.028    -0.247
	Zn+2              6.166e-09   3.493e-09    -8.210    -8.457    -0.247
	ZnHCO3+           4.818e-09   4.180e-09    -8.317    -8.379    -0.062
	ZnSO4             6.382e-10   6.414e-10    -9.195    -9.193     0.002
	ZnOH+             2.481e-10   2.153e-10    -9.605    -9.667    -0.062
	Zn(OH)2           1.383e-10   1.389e-10    -9.859    -9.857     0.002
	Zn(SO4)2-2        7.209e-12   4.084e-12   -11.142   -11.389    -0.247
	ZnCl+             5.156e-12   4.473e-12   -11.288   -11.349    -0.062
	ZnF+              4.930e-12   4.277e-12   -11.307   -11.369    -0.062
	ZnOHCl            3.078e-12   3.094e-12   -11.512   -11.510     0.002
	Zn(OH)3-          2.847e-14   2.470e-14   -13.546   -13.607    -0.062
	ZnCl2             2.218e-15   2.229e-15   -14.654   -14.652     0.002
	ZnCl3-            1.372e-18   1.190e-18   -17.863   -17.924    -0.062
	Zn(OH)4-2         3.884e-19   2.200e-19   -18.411   -18.658    -0.247
	ZnCl4-2           5.010e-22   2.838e-22   -21.300   -21.547    -0.247

------------------------------Saturation indices-------------------------------

	Phase               SI log IAP  log KT

	Al(OH)3(a)       -1.77    9.03   10.80  Al(OH)3
	AlumK           -19.47  -24.64   -5.17  KAl(SO4)2:12H2O
	Alunite          -5.18   -6.58   -1.40  KAl3(SO4)2(OH)6
	Anhydrite        -1.47   -5.83   -4.36  CaSO4
	Antlerite       -10.80   -2.51    8.29  Cu3(OH)4SO4
	Aragonite         1.01   -7.33   -8.34  CaCO3
	Artinite         -4.43    5.17    9.60  MgCO3:Mg(OH)2:3H2O
	Atacamite        -7.68   -0.34    7.34  Cu2(OH)3Cl
	Azurite          -7.20   -3.45    3.75  Cu3(OH)2(CO3)2
	BaF2             -9.16  -14.92   -5.76  BaF2
	Barite            0.07   -9.90   -9.97  BaSO4
	Basaluminite     -5.18   17.52   22.70  Al4(OH)10SO4
	Bianchite        -9.80  -11.56   -1.76  ZnSO4:6H2O
	Birnessite      -10.97   32.63   43.60  MnO2
	Bixbyite         -8.64   -9.25   -0.61  Mn2O3
	Boehmite          0.45    9.03    8.58  AlOOH
	Brochantite     -12.49    2.85   15.34  Cu4(OH)6SO4
	Brucite          -4.21   12.63   16.84  Mg(OH)2
	Bunsenite        -6.33    6.12   12.45  NiO
	Calcite           1.15   -7.33   -8.48  CaCO3
	Celestite        -1.51   -8.14   -6.63  SrSO4
	Chalcanthite    -10.60  -13.24   -2.64  CuSO4:5H2O
	CO2(g)           -1.95   -3.42   -1.47  CO2
	Cu(OH)2          -3.28    5.36    8.64  Cu(OH)2
	Cu2(OH)3NO3     -12.22   -2.98    9.24  Cu2(OH)3NO3
	Cu2SO4          -23.99  -25.94   -1.95  Cu2SO4
	Cu3(PO4)2       -13.55  -50.40  -36.85  Cu3(PO4)2
	Cu3(PO4)2:3H2O  -15.28  -50.40  -35.12  Cu3(PO4)2:3H2O
	CuCO3            -5.11  -14.74   -9.63  CuCO3
	CuF             -22.56  -15.48    7.08  CuF
	CuF2            -17.64  -18.26   -0.62  CuF2
	CuF2:2H2O       -13.71  -18.26   -4.55  CuF2:2H2O
	CuMetal          -6.66  -15.42   -8.76  Cu
	CuOCuSO4        -19.41   -7.88   11.53  CuO:CuSO4
	CupricFerrite    12.00   17.88    5.88  CuFe2O4
	Cuprite          -5.78   -7.33   -1.55  Cu2O
	CuprousFerrite   11.51    2.59   -8.92  CuFeO2
	CuSO4           -16.25  -13.24    3.01  CuSO4
	Diaspore          2.15    9.03    6.88  AlOOH
	Dolomite          2.30  -14.79  -17.09  CaMg(CO3)2
	Dolomite(d)       1.75  -14.79  -16.54  CaMg(CO3)2
	Epsomite         -3.83   -5.97   -2.14  MgSO4:7H2O
	FCO3Apatite      24.05  -90.35 -114.40  Ca9.316Na0.36Mg0.144(PO4)4.8(CO3)1.2F2.48
	Fe(OH)2.7Cl.3     5.98    2.94   -3.04  Fe(OH)2.7Cl0.3
	Fe(OH)3(a)        1.37    6.26    4.89  Fe(OH)3
	Fe3(OH)8         -0.18   20.05   20.22  Fe3(OH)8
	Fluorapatite      6.95  -10.65  -17.60  Ca5(PO4)3F
	Fluorite         -0.25  -10.85  -10.60  CaF2
	Gibbsite          0.92    9.03    8.11  Al(OH)3
	Goethite          7.26    6.26   -1.00  FeOOH
	Goslarite        -9.60  -11.56   -1.96  ZnSO4:7H2O
	Gypsum           -1.25   -5.83   -4.58  CaSO4:2H2O
	H2(g)           -23.50  -26.65   -3.15  H2
	H2O(g)           -1.51   -0.00    1.51  H2O
	Halite           -7.53   -5.95    1.58  NaCl
	Hausmannite     -10.13   50.90   61.03  Mn3O4
	Hematite         16.53   12.52   -4.01  Fe2O3
	Huntite           0.24  -29.73  -29.97  CaMg3(CO3)4
	Hydromagnesite   -8.47  -17.24   -8.76  Mg5(CO3)4(OH)2:4H2O
	Hydroxyapatite    4.58    1.16   -3.42  Ca5(PO4)3OH
	Jarosite(ss)     -5.73  -15.56   -9.83  (K0.77Na0.03H0.2)Fe3(SO4)2(OH)6
	Jarosite-K       -5.69  -14.90   -9.21  KFe3(SO4)2(OH)6
	Jarosite-Na      -8.03  -13.31   -5.28  NaFe3(SO4)2(OH)6
	JarositeH       -13.05  -18.44   -5.39  (H3O)Fe3(SO4)2(OH)6
	Jurbanite        -6.34   -9.57   -3.23  AlOHSO4
	Langite         -13.94    2.85   16.79  Cu4(OH)6SO4:H2O
	Maghemite         6.13   12.52    6.39  Fe2O3
	Magnesite         0.56   -7.47   -8.03  MgCO3
	Magnetite        16.31   20.05    3.74  Fe3O4
	Malachite        -4.19    0.96    5.15  Cu2(OH)2CO3
	Manganite        -4.46   20.88   25.34  MnOOH
	Melanothallite  -20.51  -16.78    3.73  CuCl2
	Melanterite      -8.87  -11.08   -2.21  FeSO4:7H2O
	Mirabilite       -7.24   -8.36   -1.11  Na2SO4:10H2O
	Mn2(SO4)3       -59.36  -65.07   -5.71  Mn2(SO4)3
	Mn3(PO4)2       -15.27  -39.09  -23.83  Mn3(PO4)2
	MnCl2:4H2O      -15.72  -13.01    2.71  MnCl2:4H2O
	MnHPO4            1.18  -11.77  -12.95  MnHPO4
	MnSO4           -12.14   -9.47    2.67  MnSO4
	Morenosite      -10.12  -12.48   -2.36  NiSO4:7H2O
	Nahcolite        -4.10   -4.65   -0.55  NaHCO3
	Nantokite        -7.98  -14.74   -6.76  CuCl
	Natron           -8.54   -9.85   -1.31  Na2CO3:10H2O
	Nesquehonite     -1.85   -7.47   -5.62  MgCO3:3H2O
	Ni(OH)2          -4.68    6.12   10.80  Ni(OH)2
	Ni3(PO4)2       -16.82  -48.12  -31.30  Ni3(PO4)2
	Ni4(OH)6SO4     -26.11    5.89   32.00  Ni4(OH)6SO4
	NiCO3            -7.14  -13.98   -6.84  NiCO3
	Nsutite          -9.93   32.63   42.56  MnO2
	O2(g)           -36.19  -39.08   -2.89  O2
	Portlandite     -10.03   12.77   22.80  Ca(OH)2
	Pyrochroite      -6.07    9.13   15.20  Mn(OH)2
	Pyrolusite       -8.75   32.63   41.38  MnO2
	Retgersite      -10.44  -12.48   -2.04  NiSO4:6H2O
	Rhodochrosite     0.16  -10.97  -11.13  MnCO3
	Rhodochrosite(d)  -0.58  -10.97  -10.39  MnCO3
	Siderite         -1.68  -12.57  -10.89  FeCO3
	Siderite(d)(3)   -2.12  -12.57  -10.45  FeCO3
	Smithsonite      -3.06  -13.06  -10.00  ZnCO3
	SrF2             -4.62  -13.16   -8.54  SrF2
	Strengite        -0.59  -26.99  -26.40  FePO4:2H2O
	Strontianite     -0.36   -9.63   -9.27  SrCO3
	Tenorite         -2.26    5.36    7.62  CuO
	Thenardite       -8.18   -8.35   -0.18  Na2SO4
	Thermonatrite    -9.97   -9.85    0.12  Na2CO3:H2O
	Trona           -13.70  -14.50   -0.80  NaHCO3:Na2CO3:2H2O
	Vivianite        -7.91  -43.91  -36.00  Fe3(PO4)2:8H2O
	Witherite        -2.83  -11.40   -8.56  BaCO3
	Zincite(c)       -4.10    7.04   11.14  ZnO
	Zincosite       -14.57  -11.56    3.01  ZnSO4
	Zn(BO2)2        -10.71   -2.42    8.29  Zn(BO2)2
	Zn(NO3)2:6H2O   -23.82  -20.38    3.44  Zn(NO3)2:6H2O
	Zn(OH)2-a        -5.41    7.04   12.45  Zn(OH)2
	Zn(OH)2-b        -4.71    7.04   11.75  Zn(OH)2
	Zn(OH)2-c        -5.16    7.04   12.20  Zn(OH)2
	Zn(OH)2-e        -4.46    7.04   11.50  Zn(OH)2
	Zn(OH)2-g        -4.67    7.04   11.71  Zn(OH)2
	Zn2(OH)2SO4     -12.02   -4.52    7.50  Zn2(OH)2SO4
	Zn2(OH)3Cl      -12.19    3.01   15.20  Zn2(OH)3Cl
	Zn3(PO4)2:4w    -13.33  -45.37  -32.04  Zn3(PO4)2:4H2O
	Zn3O(SO4)2      -35.10  -16.08   19.02  ZnO:2ZnSO4
	Zn4(OH)6SO4     -18.83    9.57   28.40  Zn4(OH)6SO4
	Zn5(OH)8Cl2     -25.43   13.07   38.50  Zn5(OH)8Cl2
	ZnCl2           -22.13  -15.10    7.03  ZnCl2
	ZnCO3:H2O        -2.80  -13.06  -10.26  ZnCO3:H2O
	ZnF2            -15.06  -16.58   -1.52  ZnF2
	ZnMetal         -42.21  -16.46   25.76  Zn
	ZnO(a)           -4.27    7.04   11.31  ZnO
	ZnSO4:H2O       -10.99  -11.56   -0.57  ZnSO4:H2O

-------------------------------------------------------
Beginning of initial exchange-composition calculations.
-------------------------------------------------------

Exchange 1.	

X                1.000e+00 mol

	                               Equiv-    Equivalent      Log 
	Species             Moles      alents      Fraction     Gamma

	CaX2              3.345e-01   6.690e-01   6.690e-01     0.000
	MgX2              1.532e-01   3.064e-01   3.064e-01     0.000
	NaX               1.787e-02   1.787e-02   1.787e-02     0.000
	KX                2.322e-03   2.322e-03   2.322e-03     0.000
	SrX2              2.127e-03   4.254e-03   4.254e-03     0.000
	MnX2              4.032e-05   8.064e-05   8.064e-05     0.000
	BaX2              3.684e-05   7.368e-05   7.368e-05     0.000
	HX                1.337e-06   1.337e-06   1.337e-06     0.000
	FeX2              8.332e-07   1.666e-06   1.666e-06     0.000
	ZnX2              6.231e-07   1.246e-06   1.246e-06     0.000
	CuX2              8.237e-09   1.647e-08   1.647e-08     0.000
	AlX3              4.015e-12   1.205e-11   1.205e-11     0.000

------------------------------------------------------
Beginning of initial surface-composition calculations.
------------------------------------------------------

Surface 1.	

Hfo           
	 -7.376e-07  Surface charge, eq
	 -3.594e-04  sigma, C/m**2
	 -1.076e-03  psi, V
	  4.188e-02  -F*psi/RT
	  1.043e+00  exp(-F*psi/RT)
	  6.000e+02  specific area, m**2/g
	  1.980e+02  m**2 for   3.300e-01 g


Hfo_w         
	  5.000e-01  moles
	                                   Mole                     Log
	Species               Moles    Fraction    Molality    Molality

	Hfo_wOMg+         1.911e-01       0.382   1.911e-01      -0.719
	Hfo_wOH           9.535e-02       0.191   9.535e-02      -1.021
	Hfo_wPO4-2        8.224e-02       0.164   8.224e-02      -1.085
	Hfo_wHPO4-        7.133e-02       0.143   7.133e-02      -1.147
	Hfo_wOH2+         3.447e-02       0.069   3.447e-02      -1.462
	Hfo_wOCa+         1.481e-02       0.030   1.481e-02      -1.830
	Hfo_wO-           6.041e-03       0.012   6.041e-03      -2.219
	Hfo_wOCu+         1.629e-03       0.003   1.629e-03      -2.788
	Hfo_wH2PO4        1.051e-03       0.002   1.051e-03      -2.979
	Hfo_wOMn+         7.614e-04       0.002   7.614e-04      -3.118
	Hfo_wOHSO4-2      4.235e-04       0.001   4.235e-04      -3.373
	Hfo_wOHF-         3.156e-04       0.001   3.156e-04      -3.501
	Hfo_wOZn+         1.998e-04       0.000   1.998e-04      -3.699
	Hfo_wSO4-         7.678e-05       0.000   7.678e-05      -4.115
	Hfo_wF            7.370e-05       0.000   7.370e-05      -4.133
	Hfo_wOFe+         6.264e-05       0.000   6.264e-05      -4.203
	Hfo_wOSr+         1.361e-05       0.000   1.361e-05      -4.866
	Hfo_wOFeOH        9.088e-06       0.000   9.088e-06      -5.042
	Hfo_wONi+         7.438e-06       0.000   7.438e-06      -5.129
	Hfo_wH2BO3        7.348e-06       0.000   7.348e-06      -5.134
	Hfo_wOBa+         5.655e-08       0.000   5.655e-08      -7.248
	Hfo_wOSrOH        7.006e-09       0.000   7.006e-09      -8.155

------------------
End of simulation.
------------------

------------------------------------
Reading input data for simulation 2.
------------------------------------

	TITLE Part 2.--Equil. of leachate solution with basic media minerals
	SOLUTION 2  Average Leachate concentrations from Lambton
	        units   ppm
	        pH      8.82
	        pe      9.9
	        temp    25.0
	        Ca              480.
	        Mg              71.9
	        Na              28959.   charge
	        K               905.
	        Fe              2.75
	        Mn              0.231
	        Cl              34651.
	        Alkalinity      9630.    as CaCO3
	        S(6)            6146.
	        N(5)            0.29     as NO3
	        F               12.4
	        Br              181.
	        Al              1.32
	        As              0.050
	        Ba              0.101
	        B               22.7
	        Cu              0.1
	        Pb              0.313
	        Ni              4.79
	        P               20.0
	        Sr              2.93
	        Zn              36.3
	EQUILIBRIUM_PHASES 1
	        Montmorillonite-Ca
	        Illite
	        Chlorite14A
	SAVE solution 3
	END
-----
TITLE
-----

 Part 2.--Equil. of leachate solution with basic media minerals

-------------------------------------------
Beginning of initial solution calculations.
-------------------------------------------

Initial solution 2.	Average Leachate concentrations from Lambton

WARNING: Equivalent wt for alkalinity should be Ca.5(CO3).5. Using 50.0455 g/eq.
-----------------------------Solution composition------------------------------

	Elements           Molality       Moles

	Al                5.324e-05   5.324e-05
	Alkalinity        2.094e-01   2.094e-01
	As                7.263e-07   7.263e-07
	B                 2.285e-03   2.285e-03
	Ba                8.003e-07   8.003e-07
	Br                2.465e-03   2.465e-03
	Ca                1.303e-02   1.303e-02
	Cl                1.064e+00   1.064e+00
	Cu                1.713e-06   1.713e-06
	F                 7.103e-04   7.103e-04
	Fe                5.359e-05   5.359e-05
	K                 2.519e-02   2.519e-02
	Mg                3.218e-03   3.218e-03
	Mn                4.576e-06   4.576e-06
	N(5)              5.090e-06   5.090e-06
	Na                1.357e+00   1.357e+00  Charge balance
	Ni                8.879e-05   8.879e-05
	P                 7.027e-04   7.027e-04
	Pb                1.644e-06   1.644e-06
	S(6)              6.963e-02   6.963e-02
	Sr                3.639e-05   3.639e-05
	Zn                6.043e-04   6.043e-04

----------------------------Description of solution----------------------------

                                       pH  =   8.820    
                                       pe  =   9.900    
                        Activity of water  =   0.956
                           Ionic strength  =   1.374e+00
                       Mass of water (kg)  =   1.000e+00
                    Total carbon (mol/kg)  =   1.577e-01
                       Total CO2 (mol/kg)  =   1.577e-01
                      Temperature (deg C)  =  25.000
                  Electrical balance (eq)  =  -2.762e-16
 Percent error, 100*(Cat-|An|)/(Cat+|An|)  =  -0.00
                               Iterations  =  12
                                  Total H  = 1.111270e+02
                                  Total O  = 5.626769e+01

----------------------------Distribution of species----------------------------

	                                           Log       Log         Log 
	Species            Molality    Activity  Molality  Activity     Gamma

	OH-               7.341e-06   6.321e-06    -5.134    -5.199    -0.065
	H+                2.059e-09   1.514e-09    -8.686    -8.820    -0.134
	H2O               5.551e+01   9.558e-01     1.744    -0.020     0.000
Al               5.324e-05
	Al(OH)4-          5.321e-05   4.582e-05    -4.274    -4.339    -0.065
	Al(OH)3           2.806e-08   3.850e-08    -7.552    -7.415     0.137
	Al(OH)2+          4.806e-10   4.138e-10    -9.318    -9.383    -0.065
	AlF3              5.229e-11   7.174e-11   -10.282   -10.144     0.137
	AlF2+             1.503e-11   1.295e-11   -10.823   -10.888    -0.065
	AlF4-             1.460e-11   1.257e-11   -10.836   -10.901    -0.065
	AlOH+2            1.521e-13   8.361e-14   -12.818   -13.078    -0.260
	AlF+2             1.067e-13   5.868e-14   -12.972   -13.232    -0.260
	AlSO4+            2.551e-16   2.197e-16   -15.593   -15.658    -0.065
	Al+3              5.119e-17   1.333e-17   -16.291   -16.875    -0.584
	Al(SO4)2-         4.204e-17   3.620e-17   -16.376   -16.441    -0.065
	AlHSO4+2          5.362e-26   2.948e-26   -25.271   -25.530    -0.260
As(3)            2.806e-33
	H3AsO3            1.608e-33   2.206e-33   -32.794   -32.656     0.137
	H2AsO3-           1.198e-33   1.032e-33   -32.921   -32.986    -0.065
	HAsO3-2           2.474e-39   1.360e-39   -38.607   -38.866    -0.260
	H4AsO3+           0.000e+00   0.000e+00   -41.716   -41.781    -0.065
	AsO3-3            0.000e+00   0.000e+00   -45.162   -45.746    -0.584
As(5)            7.263e-07
	HAsO4-2           7.141e-07   3.927e-07    -6.146    -6.406    -0.260
	H2AsO4-           9.976e-09   8.590e-09    -8.001    -8.066    -0.065
	AsO4-3            2.231e-09   5.808e-10    -8.652    -9.236    -0.584
	H3AsO4            1.891e-15   2.594e-15   -14.723   -14.586     0.137
B                2.285e-03
	H3BO3             1.423e-03   1.952e-03    -2.847    -2.709     0.137
	H2BO3-            8.620e-04   7.423e-04    -3.065    -3.129    -0.065
	BF(OH)3-          3.973e-07   3.421e-07    -6.401    -6.466    -0.065
	BF2(OH)2-         2.968e-11   2.556e-11   -10.528   -10.592    -0.065
	BF3OH-            2.268e-17   1.953e-17   -16.644   -16.709    -0.065
	BF4-              6.442e-23   5.548e-23   -22.191   -22.256    -0.065
Ba               8.003e-07
	BaSO4             3.070e-07   4.212e-07    -6.513    -6.375     0.137
	Ba+2              2.933e-07   1.613e-07    -6.533    -6.792    -0.260
	BaCO3             1.024e-07   1.404e-07    -6.990    -6.853     0.137
	BaHCO3+           9.766e-08   8.410e-08    -7.010    -7.075    -0.065
	BaOH+             4.007e-12   3.451e-12   -11.397   -11.462    -0.065
Br               2.465e-03
	Br-               2.465e-03   2.123e-03    -2.608    -2.673    -0.065
	ZnBr+             1.756e-11   1.512e-11   -10.755   -10.820    -0.065
	NiBr+             9.145e-12   7.875e-12   -11.039   -11.104    -0.065
	PbBr+             9.661e-13   8.319e-13   -12.015   -12.080    -0.065
	ZnBr2             9.314e-15   1.278e-14   -14.031   -13.893     0.137
	PbBr2             6.020e-16   8.260e-16   -15.220   -15.083     0.137
C(4)             1.577e-01
	HCO3-             8.503e-02   5.440e-02    -1.070    -1.264    -0.194
	NaCO3-            3.423e-02   2.948e-02    -1.466    -1.531    -0.065
	NaHCO3            2.094e-02   2.873e-02    -1.679    -1.542     0.137
	CO3-2             1.006e-02   1.686e-03    -1.997    -2.773    -0.776
	CaCO3             3.507e-03   4.812e-03    -2.455    -2.318     0.137
	CaHCO3+           1.373e-03   1.182e-03    -2.862    -2.927    -0.065
	MgCO3             6.167e-04   8.461e-04    -3.210    -3.073     0.137
	Zn(CO3)2-2        5.969e-04   3.282e-04    -3.224    -3.484    -0.260
	MgHCO3+           3.888e-04   3.348e-04    -3.410    -3.475    -0.065
	CO2               1.412e-04   1.937e-04    -3.850    -3.713     0.137
	Ni(CO3)2-2        7.809e-05   4.294e-05    -4.107    -4.367    -0.260
	NiCO3             1.068e-05   1.466e-05    -4.971    -4.834     0.137
	ZnCO3             6.638e-06   9.108e-06    -5.178    -5.041     0.137
	SrHCO3+           6.468e-06   4.138e-06    -5.189    -5.383    -0.194
	SrCO3             5.351e-06   5.351e-06    -5.272    -5.272     0.000
	MnCO3             4.085e-06   5.605e-06    -5.389    -5.251     0.137
	Pb(CO3)2-2        1.501e-06   8.254e-07    -5.824    -6.083    -0.260
	Cu(CO3)2-2        1.256e-06   6.904e-07    -5.901    -6.161    -0.260
	CuCO3             2.371e-07   3.254e-07    -6.625    -6.488     0.137
	MnHCO3+           2.357e-07   2.030e-07    -6.628    -6.693    -0.065
	ZnHCO3+           2.154e-07   1.855e-07    -6.667    -6.732    -0.065
	PbCO3             1.421e-07   1.949e-07    -6.847    -6.710     0.137
	BaCO3             1.024e-07   1.404e-07    -6.990    -6.853     0.137
	BaHCO3+           9.766e-08   8.410e-08    -7.010    -7.075    -0.065
	NiHCO3+           1.023e-08   8.810e-09    -7.990    -8.055    -0.065
	CuHCO3+           1.138e-09   9.800e-10    -8.944    -9.009    -0.065
	PbHCO3+           3.340e-10   2.876e-10    -9.476    -9.541    -0.065
	FeCO3             2.126e-14   2.917e-14   -13.672   -13.535     0.137
	FeHCO3+           4.558e-15   3.925e-15   -14.341   -14.406    -0.065
Ca               1.303e-02
	Ca+2              6.628e-03   1.704e-03    -2.179    -2.769    -0.590
	CaCO3             3.507e-03   4.812e-03    -2.455    -2.318     0.137
	CaHCO3+           1.373e-03   1.182e-03    -2.862    -2.927    -0.065
	CaSO4             1.291e-03   1.772e-03    -2.889    -2.752     0.137
	CaPO4-            1.616e-04   1.391e-04    -3.792    -3.857    -0.065
	CaHPO4            6.487e-05   8.901e-05    -4.188    -4.051     0.137
	CaF+              7.586e-06   6.533e-06    -5.120    -5.185    -0.065
	CaOH+             2.074e-07   1.786e-07    -6.683    -6.748    -0.065
	CaH2PO4+          1.176e-07   1.013e-07    -6.930    -6.995    -0.065
	CaHSO4+           1.824e-11   1.571e-11   -10.739   -10.804    -0.065
Cl               1.064e+00
	Cl-               1.064e+00   6.209e-01     0.027    -0.207    -0.234
	ZnOHCl            2.563e-07   3.516e-07    -6.591    -6.454     0.137
	MnCl+             1.230e-07   1.059e-07    -6.910    -6.975    -0.065
	ZnCl+             5.256e-08   4.526e-08    -7.279    -7.344    -0.065
	ZnCl3-            2.381e-08   2.050e-08    -7.623    -7.688    -0.065
	ZnCl2             2.145e-08   2.943e-08    -7.669    -7.531     0.137
	MnCl2             2.092e-08   2.870e-08    -7.679    -7.542     0.137
	ZnCl4-2           1.160e-08   6.381e-09    -7.935    -8.195    -0.260
	MnCl3-            5.701e-09   4.909e-09    -8.244    -8.309    -0.065
	NiCl2             3.007e-09   4.125e-09    -8.522    -8.385     0.137
	NiCl+             2.125e-09   1.830e-09    -8.673    -8.738    -0.065
	PbCl+             1.910e-10   1.645e-10    -9.719    -9.784    -0.065
	PbCl2             1.180e-10   1.619e-10    -9.928    -9.791     0.137
	PbCl3-            9.273e-11   7.986e-11   -10.033   -10.098    -0.065
	CuCl+             6.976e-11   6.007e-11   -10.156   -10.221    -0.065
	PbCl4-2           4.316e-11   2.373e-11   -10.365   -10.625    -0.260
	CuCl2             1.460e-11   2.003e-11   -10.836   -10.698     0.137
	CuCl3-2           5.182e-13   2.850e-13   -12.286   -12.545    -0.260
	CuCl2-            3.362e-13   2.895e-13   -12.473   -12.538    -0.065
	CuCl3-            5.125e-14   4.413e-14   -13.290   -13.355    -0.065
	FeCl+             7.181e-16   6.184e-16   -15.144   -15.209    -0.065
	CuCl4-2           2.498e-16   1.373e-16   -15.602   -15.862    -0.260
	FeCl2+            3.306e-17   2.847e-17   -16.481   -16.546    -0.065
	FeCl+2            1.866e-17   1.026e-17   -16.729   -16.989    -0.260
	FeCl3             1.288e-18   1.768e-18   -17.890   -17.753     0.137
Cu(1)            8.544e-13
	CuCl3-2           5.182e-13   2.850e-13   -12.286   -12.545    -0.260
	CuCl2-            3.362e-13   2.895e-13   -12.473   -12.538    -0.065
	Cu+               2.758e-18   2.375e-18   -17.559   -17.624    -0.065
Cu(2)            1.713e-06
	Cu(CO3)2-2        1.256e-06   6.904e-07    -5.901    -6.161    -0.260
	CuCO3             2.371e-07   3.254e-07    -6.625    -6.488     0.137
	Cu(OH)2           2.182e-07   2.994e-07    -6.661    -6.524     0.137
	CuHCO3+           1.138e-09   9.800e-10    -8.944    -9.009    -0.065
	CuOH+             2.636e-10   2.270e-10    -9.579    -9.644    -0.065
	CuCl+             6.976e-11   6.007e-11   -10.156   -10.221    -0.065
	Cu+2              6.537e-11   3.594e-11   -10.185   -10.444    -0.260
	CuSO4             2.787e-11   3.824e-11   -10.555   -10.417     0.137
	CuCl2             1.460e-11   2.003e-11   -10.836   -10.698     0.137
	Cu(OH)3-          1.323e-11   1.139e-11   -10.878   -10.943    -0.065
	CuF+              3.343e-13   2.879e-13   -12.476   -12.541    -0.065
	CuCl3-            5.125e-14   4.413e-14   -13.290   -13.355    -0.065
	Cu2(OH)2+2        4.099e-14   2.254e-14   -13.387   -13.647    -0.260
	Cu(OH)4-2         2.611e-15   1.436e-15   -14.583   -14.843    -0.260
	CuCl4-2           2.498e-16   1.373e-16   -15.602   -15.862    -0.260
F                7.103e-04
	F-                5.112e-04   4.402e-04    -3.291    -3.356    -0.065
	NaF               1.734e-04   2.379e-04    -3.761    -3.624     0.137
	MgF+              1.777e-05   1.530e-05    -4.750    -4.815    -0.065
	CaF+              7.586e-06   6.533e-06    -5.120    -5.185    -0.065
	BF(OH)3-          3.973e-07   3.421e-07    -6.401    -6.466    -0.065
	HF                7.283e-10   9.992e-10    -9.138    -9.000     0.137
	ZnF+              1.955e-10   1.684e-10    -9.709    -9.774    -0.065
	MnF+              1.481e-10   1.275e-10    -9.830    -9.895    -0.065
	AlF3              5.229e-11   7.174e-11   -10.282   -10.144     0.137
	BF2(OH)2-         2.968e-11   2.556e-11   -10.528   -10.592    -0.065
	AlF2+             1.503e-11   1.295e-11   -10.823   -10.888    -0.065
	AlF4-             1.460e-11   1.257e-11   -10.836   -10.901    -0.065
	NiF+              1.197e-11   1.030e-11   -10.922   -10.987    -0.065
	HF2-              1.960e-12   1.688e-12   -11.708   -11.773    -0.065
	CuF+              3.343e-13   2.879e-13   -12.476   -12.541    -0.065
	AlF+2             1.067e-13   5.868e-14   -12.972   -13.232    -0.260
	PbF+              6.050e-14   5.210e-14   -13.218   -13.283    -0.065
	FeF2+             7.771e-15   6.692e-15   -14.110   -14.174    -0.065
	FeF3              3.403e-15   4.668e-15   -14.468   -14.331     0.137
	FeF+2             6.944e-16   3.818e-16   -15.158   -15.418    -0.260
	PbF2              3.413e-16   4.682e-16   -15.467   -15.330     0.137
	BF3OH-            2.268e-17   1.953e-17   -16.644   -16.709    -0.065
	FeF+              3.688e-18   3.176e-18   -17.433   -17.498    -0.065
	H2F2              1.896e-18   2.602e-18   -17.722   -17.585     0.137
	PbF3-             1.734e-18   1.493e-18   -17.761   -17.826    -0.065
	PbF4-2            5.721e-22   3.146e-22   -21.243   -21.502    -0.260
	BF4-              6.442e-23   5.548e-23   -22.191   -22.256    -0.065
Fe(2)            2.871e-14
	FeCO3             2.126e-14   2.917e-14   -13.672   -13.535     0.137
	FeHCO3+           4.558e-15   3.925e-15   -14.341   -14.406    -0.065
	Fe+2              1.312e-15   7.215e-16   -14.882   -15.142    -0.260
	FeCl+             7.181e-16   6.184e-16   -15.144   -15.209    -0.065
	FeSO4             4.873e-16   6.686e-16   -15.312   -15.175     0.137
	FeHPO4            1.995e-16   2.737e-16   -15.700   -15.563     0.137
	FeOH+             1.673e-16   1.441e-16   -15.776   -15.841    -0.065
	FeF+              3.688e-18   3.176e-18   -17.433   -17.498    -0.065
	FeH2PO4+          9.753e-19   8.399e-19   -18.011   -18.076    -0.065
	Fe(OH)2           5.644e-19   7.743e-19   -18.248   -18.111     0.137
	Fe(OH)3-          2.110e-20   1.817e-20   -19.676   -19.741    -0.065
	FeHSO4+           7.725e-24   6.652e-24   -23.112   -23.177    -0.065
Fe(3)            5.359e-05
	Fe(OH)3           2.766e-05   3.796e-05    -4.558    -4.421     0.137
	Fe(OH)4-          2.538e-05   2.186e-05    -4.595    -4.660    -0.065
	Fe(OH)2+          5.418e-07   4.666e-07    -6.266    -6.331    -0.065
	FeOH+2            4.058e-12   2.231e-12   -11.392   -11.651    -0.260
	FeF2+             7.771e-15   6.692e-15   -14.110   -14.174    -0.065
	FeF3              3.403e-15   4.668e-15   -14.468   -14.331     0.137
	FeF+2             6.944e-16   3.818e-16   -15.158   -15.418    -0.260
	FeSO4+            3.632e-17   3.127e-17   -16.440   -16.505    -0.065
	FeCl2+            3.306e-17   2.847e-17   -16.481   -16.546    -0.065
	FeCl+2            1.866e-17   1.026e-17   -16.729   -16.989    -0.260
	FeHPO4+           1.630e-17   1.403e-17   -16.788   -16.853    -0.065
	Fe(SO4)2-         4.141e-18   3.566e-18   -17.383   -17.448    -0.065
	Fe+3              2.102e-18   5.473e-19   -17.677   -18.262    -0.584
	FeCl3             1.288e-18   1.768e-18   -17.890   -17.753     0.137
	FeH2PO4+2         6.222e-19   3.421e-19   -18.206   -18.466    -0.260
	Fe2(OH)2+4        1.466e-21   1.340e-22   -20.834   -21.873    -1.039
	Fe3(OH)4+5        5.488e-25   1.306e-26   -24.261   -25.884    -1.623
	FeHSO4+2          2.305e-25   1.268e-25   -24.637   -24.897    -0.260
H(0)             0.000e+00
	H2                0.000e+00   0.000e+00   -40.727   -40.590     0.137
K                2.519e-02
	K+                2.457e-02   1.435e-02    -1.610    -1.843    -0.234
	KSO4-             6.100e-04   5.253e-04    -3.215    -3.280    -0.065
	KHPO4-            3.095e-06   2.665e-06    -5.509    -5.574    -0.065
Mg               3.218e-03
	Mg+2              1.631e-03   5.260e-04    -2.788    -3.279    -0.491
	MgCO3             6.167e-04   8.461e-04    -3.210    -3.073     0.137
	MgSO4             4.684e-04   6.426e-04    -3.329    -3.192     0.137
	MgHCO3+           3.888e-04   3.348e-04    -3.410    -3.475    -0.065
	MgPO4-            6.729e-05   5.794e-05    -4.172    -4.237    -0.065
	MgHPO4            2.708e-05   3.715e-05    -4.567    -4.430     0.137
	MgF+              1.777e-05   1.530e-05    -4.750    -4.815    -0.065
	MgOH+             1.401e-06   1.206e-06    -5.854    -5.919    -0.065
	MgH2PO4+          4.623e-08   3.981e-08    -7.335    -7.400    -0.065
Mn(2)            4.576e-06
	MnCO3             4.085e-06   5.605e-06    -5.389    -5.251     0.137
	MnHCO3+           2.357e-07   2.030e-07    -6.628    -6.693    -0.065
	MnCl+             1.230e-07   1.059e-07    -6.910    -6.975    -0.065
	Mn+2              7.613e-08   4.186e-08    -7.118    -7.378    -0.260
	MnSO4             2.828e-08   3.880e-08    -7.549    -7.411     0.137
	MnCl2             2.092e-08   2.870e-08    -7.679    -7.542     0.137
	MnCl3-            5.701e-09   4.909e-09    -8.244    -8.309    -0.065
	MnOH+             7.891e-10   6.795e-10    -9.103    -9.168    -0.065
	MnF+              1.481e-10   1.275e-10    -9.830    -9.895    -0.065
	Mn(OH)3-          1.940e-16   1.671e-16   -15.712   -15.777    -0.065
	Mn(NO3)2          2.334e-18   3.202e-18   -17.632   -17.495     0.137
Mn(3)            3.947e-23
	Mn+3              3.947e-23   1.028e-23   -22.404   -22.988    -0.584
Mn(6)            3.334e-16
	MnO4-2            3.334e-16   1.833e-16   -15.477   -15.737    -0.260
Mn(7)            6.985e-16
	MnO4-             6.985e-16   6.015e-16   -15.156   -15.221    -0.065
N(5)             5.090e-06
	NO3-              5.090e-06   4.383e-06    -5.293    -5.358    -0.065
	PbNO3+            5.010e-16   4.314e-16   -15.300   -15.365    -0.065
	Mn(NO3)2          2.334e-18   3.202e-18   -17.632   -17.495     0.137
Na               1.357e+00
	Na+               1.273e+00   9.391e-01     0.105    -0.027    -0.132
	NaCO3-            3.423e-02   2.948e-02    -1.466    -1.531    -0.065
	NaSO4-            2.848e-02   2.453e-02    -1.545    -1.610    -0.065
	NaHCO3            2.094e-02   2.873e-02    -1.679    -1.542     0.137
	NaHPO4-           2.026e-04   1.745e-04    -3.693    -3.758    -0.065
	NaF               1.734e-04   2.379e-04    -3.761    -3.624     0.137
Ni               8.879e-05
	Ni(CO3)2-2        7.809e-05   4.294e-05    -4.107    -4.367    -0.260
	NiCO3             1.068e-05   1.466e-05    -4.971    -4.834     0.137
	NiHCO3+           1.023e-08   8.810e-09    -7.990    -8.055    -0.065
	NiCl2             3.007e-09   4.125e-09    -8.522    -8.385     0.137
	Ni+2              2.133e-09   1.173e-09    -8.671    -8.931    -0.260
	NiCl+             2.125e-09   1.830e-09    -8.673    -8.738    -0.065
	NiSO4             8.688e-10   1.192e-09    -9.061    -8.924     0.137
	NiOH+             1.187e-10   1.023e-10    -9.925    -9.990    -0.065
	Ni(OH)2           3.409e-11   4.678e-11   -10.467   -10.330     0.137
	NiF+              1.197e-11   1.030e-11   -10.922   -10.987    -0.065
	NiBr+             9.145e-12   7.875e-12   -11.039   -11.104    -0.065
	Ni(SO4)2-2        6.067e-13   3.336e-13   -12.217   -12.477    -0.260
	Ni(OH)3-          3.430e-13   2.954e-13   -12.465   -12.530    -0.065
O(0)             8.402e-12
	O2                4.201e-12   5.764e-12   -11.377   -11.239     0.137
P                7.027e-04
	NaHPO4-           2.026e-04   1.745e-04    -3.693    -3.758    -0.065
	HPO4-2            1.733e-04   9.527e-05    -3.761    -4.021    -0.260
	CaPO4-            1.616e-04   1.391e-04    -3.792    -3.857    -0.065
	MgPO4-            6.729e-05   5.794e-05    -4.172    -4.237    -0.065
	CaHPO4            6.487e-05   8.901e-05    -4.188    -4.051     0.137
	MgHPO4            2.708e-05   3.715e-05    -4.567    -4.430     0.137
	KHPO4-            3.095e-06   2.665e-06    -5.509    -5.574    -0.065
	H2PO4-            2.697e-06   2.323e-06    -5.569    -5.634    -0.065
	CaH2PO4+          1.176e-07   1.013e-07    -6.930    -6.995    -0.065
	PO4-3             1.090e-07   2.838e-08    -6.963    -7.547    -0.584
	MgH2PO4+          4.623e-08   3.981e-08    -7.335    -7.400    -0.065
	FeHPO4            1.995e-16   2.737e-16   -15.700   -15.563     0.137
	FeHPO4+           1.630e-17   1.403e-17   -16.788   -16.853    -0.065
	FeH2PO4+          9.753e-19   8.399e-19   -18.011   -18.076    -0.065
	FeH2PO4+2         6.222e-19   3.421e-19   -18.206   -18.466    -0.260
Pb               1.644e-06
	Pb(CO3)2-2        1.501e-06   8.254e-07    -5.824    -6.083    -0.260
	PbCO3             1.421e-07   1.949e-07    -6.847    -6.710     0.137
	PbHCO3+           3.340e-10   2.876e-10    -9.476    -9.541    -0.065
	PbCl+             1.910e-10   1.645e-10    -9.719    -9.784    -0.065
	PbCl2             1.180e-10   1.619e-10    -9.928    -9.791     0.137
	PbOH+             9.516e-11   8.194e-11   -10.022   -10.086    -0.065
	PbCl3-            9.273e-11   7.986e-11   -10.033   -10.098    -0.065
	PbCl4-2           4.316e-11   2.373e-11   -10.365   -10.625    -0.260
	Pb(OH)2           1.467e-11   2.013e-11   -10.834   -10.696     0.137
	PbSO4             1.421e-11   1.950e-11   -10.847   -10.710     0.137
	Pb+2              1.210e-11   6.655e-12   -10.917   -11.177    -0.260
	Pb(SO4)2-2        9.701e-13   5.334e-13   -12.013   -12.273    -0.260
	PbBr+             9.661e-13   8.319e-13   -12.015   -12.080    -0.065
	Pb(OH)3-          1.695e-13   1.460e-13   -12.771   -12.836    -0.065
	PbF+              6.050e-14   5.210e-14   -13.218   -13.283    -0.065
	PbBr2             6.020e-16   8.260e-16   -15.220   -15.083     0.137
	PbNO3+            5.010e-16   4.314e-16   -15.300   -15.365    -0.065
	Pb(OH)4-2         3.840e-16   2.111e-16   -15.416   -15.675    -0.260
	PbF2              3.413e-16   4.682e-16   -15.467   -15.330     0.137
	PbF3-             1.734e-18   1.493e-18   -17.761   -17.826    -0.065
	Pb2OH+3           4.689e-20   1.221e-20   -19.329   -19.913    -0.584
	PbF4-2            5.721e-22   3.146e-22   -21.243   -21.502    -0.260
	Pb3(OH)4+2        1.124e-22   6.178e-23   -21.949   -22.209    -0.260
S(6)             6.963e-02
	SO4-2             3.877e-02   5.211e-03    -1.411    -2.283    -0.872
	NaSO4-            2.848e-02   2.453e-02    -1.545    -1.610    -0.065
	CaSO4             1.291e-03   1.772e-03    -2.889    -2.752     0.137
	KSO4-             6.100e-04   5.253e-04    -3.215    -3.280    -0.065
	MgSO4             4.684e-04   6.426e-04    -3.329    -3.192     0.137
	SrSO4             3.683e-06   5.053e-06    -5.434    -5.296     0.137
	BaSO4             3.070e-07   4.212e-07    -6.513    -6.375     0.137
	MnSO4             2.828e-08   3.880e-08    -7.549    -7.411     0.137
	ZnSO4             2.411e-08   3.308e-08    -7.618    -7.480     0.137
	Zn(SO4)2-2        2.549e-09   1.401e-09    -8.594    -8.853    -0.260
	HSO4-             8.906e-10   7.669e-10    -9.050    -9.115    -0.065
	NiSO4             8.688e-10   1.192e-09    -9.061    -8.924     0.137
	CuSO4             2.787e-11   3.824e-11   -10.555   -10.417     0.137
	CaHSO4+           1.824e-11   1.571e-11   -10.739   -10.804    -0.065
	PbSO4             1.421e-11   1.950e-11   -10.847   -10.710     0.137
	Pb(SO4)2-2        9.701e-13   5.334e-13   -12.013   -12.273    -0.260
	Ni(SO4)2-2        6.067e-13   3.336e-13   -12.217   -12.477    -0.260
	FeSO4             4.873e-16   6.686e-16   -15.312   -15.175     0.137
	AlSO4+            2.551e-16   2.197e-16   -15.593   -15.658    -0.065
	Al(SO4)2-         4.204e-17   3.620e-17   -16.376   -16.441    -0.065
	FeSO4+            3.632e-17   3.127e-17   -16.440   -16.505    -0.065
	Fe(SO4)2-         4.141e-18   3.566e-18   -17.383   -17.448    -0.065
	FeHSO4+           7.725e-24   6.652e-24   -23.112   -23.177    -0.065
	FeHSO4+2          2.305e-25   1.268e-25   -24.637   -24.897    -0.260
	AlHSO4+2          5.362e-26   2.948e-26   -25.271   -25.530    -0.260
Sr               3.639e-05
	Sr+2              2.089e-05   4.973e-06    -4.680    -5.303    -0.623
	SrHCO3+           6.468e-06   4.138e-06    -5.189    -5.383    -0.194
	SrCO3             5.351e-06   5.351e-06    -5.272    -5.272     0.000
	SrSO4             3.683e-06   5.053e-06    -5.434    -5.296     0.137
	SrOH+             2.577e-10   1.610e-10    -9.589    -9.793    -0.204
Zn               6.043e-04
	Zn(CO3)2-2        5.969e-04   3.282e-04    -3.224    -3.484    -0.260
	ZnCO3             6.638e-06   9.108e-06    -5.178    -5.041     0.137
	ZnOHCl            2.563e-07   3.516e-07    -6.591    -6.454     0.137
	ZnHCO3+           2.154e-07   1.855e-07    -6.667    -6.732    -0.065
	Zn(OH)2           9.908e-08   1.359e-07    -7.004    -6.867     0.137
	ZnCl+             5.256e-08   4.526e-08    -7.279    -7.344    -0.065
	Zn+2              4.925e-08   2.708e-08    -7.308    -7.567    -0.260
	ZnSO4             2.411e-08   3.308e-08    -7.618    -7.480     0.137
	ZnCl3-            2.381e-08   2.050e-08    -7.623    -7.688    -0.065
	ZnOH+             2.177e-08   1.875e-08    -7.662    -7.727    -0.065
	ZnCl2             2.145e-08   2.943e-08    -7.669    -7.531     0.137
	ZnCl4-2           1.160e-08   6.381e-09    -7.935    -8.195    -0.260
	Zn(SO4)2-2        2.549e-09   1.401e-09    -8.594    -8.853    -0.260
	Zn(OH)3-          3.152e-10   2.715e-10    -9.501    -9.566    -0.065
	ZnF+              1.955e-10   1.684e-10    -9.709    -9.774    -0.065
	ZnBr+             1.756e-11   1.512e-11   -10.755   -10.820    -0.065
	Zn(OH)4-2         4.941e-14   2.717e-14   -13.306   -13.566    -0.260
	ZnBr2             9.314e-15   1.278e-14   -14.031   -13.893     0.137

------------------------------Saturation indices-------------------------------

	Phase               SI log IAP  log KT

	Al(OH)3(a)       -1.27    9.53   10.80  Al(OH)3
	AlAsO4:2H2O     -10.31  -26.15  -15.84  AlAsO4:2H2O
	AlumK           -18.35  -23.52   -5.17  KAl(SO4)2:12H2O
	Alunite          -2.83   -4.23   -1.40  KAl3(SO4)2(OH)6
	Anglesite        -5.67  -13.46   -7.79  PbSO4
	Anhydrite        -0.69   -5.05   -4.36  CaSO4
	Antlerite        -6.70    1.59    8.29  Cu3(OH)4SO4
	Aragonite         2.79   -5.54   -8.34  CaCO3
	Arsenolite      -63.87  -65.25   -1.38  As2O3
	Artinite         -1.39    8.21    9.60  MgCO3:Mg(OH)2:3H2O
	As2O5(cr)       -37.34  -29.11    8.23  As2O5
	As_native       -76.23  -88.76  -12.53  As
	Atacamite        -2.03    5.31    7.34  Cu2(OH)3Cl
	Azurite          -2.37    1.38    3.75  Cu3(OH)2(CO3)2
	Ba3(AsO4)2       11.26  -38.85  -50.11  Ba3(AsO4)2
	BaF2             -7.75  -13.51   -5.76  BaF2
	Barite            0.89   -9.08   -9.97  BaSO4
	Basaluminite     -4.48   18.22   22.70  Al4(OH)10SO4
	Bianchite        -8.20   -9.97   -1.76  ZnSO4:6H2O
	Birnessite        4.06   47.66   43.60  MnO2
	Bixbyite          7.50    6.88   -0.61  Mn2O3
	Boehmite          0.96    9.55    8.58  AlOOH
	Brochantite      -6.60    8.74   15.34  Cu4(OH)6SO4
	Brucite          -2.52   14.32   16.84  Mg(OH)2
	Bunsenite        -3.76    8.69   12.45  NiO
	Ca3(AsO4)2:4w    -7.95  -26.86  -18.91  Ca3(AsO4)2:4H2O
	Calcite           2.94   -5.54   -8.48  CaCO3
	Celestite        -0.95   -7.59   -6.63  SrSO4
	Cerrusite        -0.82  -13.95  -13.13  PbCO3
	Chalcanthite    -10.19  -12.83   -2.64  CuSO4:5H2O
	Claudetite      -63.91  -65.25   -1.34  As2O3
	Clpyromorphite    5.70  -78.73  -84.43  Pb5(PO4)3Cl
	CO2(g)           -2.24   -3.71   -1.47  CO2
	Cotunnite        -6.82  -11.59   -4.77  PbCl2
	Cu(OH)2          -1.48    7.16    8.64  Cu(OH)2
	Cu2(OH)3NO3      -9.09    0.15    9.24  Cu2(OH)3NO3
	Cu2SO4          -35.58  -37.53   -1.95  Cu2SO4
	Cu3(AsO4)2:6w   -14.80  -49.92  -35.12  Cu3(AsO4)2:6H2O
	Cu3(PO4)2        -9.58  -46.43  -36.85  Cu3(PO4)2
	Cu3(PO4)2:3H2O  -11.37  -46.49  -35.12  Cu3(PO4)2:3H2O
	CuBr            -12.09  -20.30   -8.21  CuBr
	CuCO3            -3.59  -13.22   -9.63  CuCO3
	CuF             -28.06  -20.98    7.08  CuF
	CuF2            -16.54  -17.16   -0.62  CuF2
	CuF2:2H2O       -12.65  -17.20   -4.55  CuF2:2H2O
	CuMetal         -18.76  -27.52   -8.76  Cu
	CuOCuSO4        -17.08   -5.55   11.53  CuO:CuSO4
	CupricFerrite    17.63   23.51    5.88  CuFe2O4
	Cuprite         -16.08  -17.63   -1.55  Cu2O
	CuprousFerrite    8.27   -0.65   -8.92  CuFeO2
	CuSO4           -15.74  -12.73    3.01  CuSO4
	Diaspore          2.67    9.55    6.88  AlOOH
	Dolomite          5.50  -11.59  -17.09  CaMg(CO3)2
	Dolomite(d)       4.95  -11.59  -16.54  CaMg(CO3)2
	Epsomite         -3.56   -5.70   -2.14  MgSO4:7H2O
	FCO3Apatite      40.25  -74.15 -114.40  Ca9.316Na0.36Mg0.144(PO4)4.8(CO3)1.2F2.48
	Fe(OH)2.7Cl.3     8.48    5.44   -3.04  Fe(OH)2.7Cl0.3
	Fe(OH)3(a)        3.25    8.14    4.89  Fe(OH)3
	Fe3(OH)8         -1.48   18.74   20.22  Fe3(OH)8
	Fluorapatite     14.80   -2.80  -17.60  Ca5(PO4)3F
	Fluorite          1.12   -9.48  -10.60  CaF2
	Gibbsite          1.42    9.53    8.11  Al(OH)3
	Goethite          9.16    8.16   -1.00  FeOOH
	Goslarite        -8.03   -9.99   -1.96  ZnSO4:7H2O
	Gypsum           -0.51   -5.09   -4.58  CaSO4:2H2O
	H2(g)           -37.44  -40.59   -3.15  H2
	H2O(g)           -1.53   -0.02    1.51  H2O
	Halite           -1.82   -0.23    1.58  NaCl
	Hausmannite       7.12   68.15   61.03  Mn3O4
	Hematite         20.35   16.34   -4.01  Fe2O3
	Hinsdalite      -16.33  -18.83   -2.50  PbAl3PO4SO4(OH)6
	Huntite           6.27  -23.70  -29.97  CaMg3(CO3)4
	Hxypyromorphite  -6.93  -69.72  -62.79  Pb5(PO4)3OH
	Hydrocerrusite   -4.02  -21.48  -17.46  Pb(OH)2:2PbCO3
	Hydromagnesite   -1.20   -9.97   -8.76  Mg5(CO3)4(OH)2:4H2O
	Hydroxyapatite   12.78    9.35   -3.42  Ca5(PO4)3OH
	Jarosite(ss)      0.10   -9.73   -9.83  (K0.77Na0.03H0.2)Fe3(SO4)2(OH)6
	Jarosite-K        0.82   -8.39   -9.21  KFe3(SO4)2(OH)6
	Jarosite-Na      -1.30   -6.58   -5.28  NaFe3(SO4)2(OH)6
	JarositeH       -10.00  -15.39   -5.39  (H3O)Fe3(SO4)2(OH)6
	Jurbanite        -7.13  -10.36   -3.23  AlOHSO4
	Langite          -8.07    8.72   16.79  Cu4(OH)6SO4:H2O
	Larnakite        -6.74   -7.02   -0.28  PbO:PbSO4
	Laurionite       -3.21   -2.58    0.62  PbOHCl
	Litharge         -6.28    6.44   12.72  PbO
	Maghemite         9.95   16.34    6.39  Fe2O3
	Magnesite         1.98   -6.05   -8.03  MgCO3
	Magnetite        15.08   18.82    3.74  Fe3O4
	Malachite        -0.88    4.27    5.15  Cu2(OH)2CO3
	Manganite         3.60   28.94   25.34  MnOOH
	Massicot         -6.47    6.44   12.91  PbO
	Matlockite       -5.31  -14.74   -9.43  PbClF
	Melanothallite  -14.59  -10.86    3.73  CuCl2
	Melanterite     -15.35  -17.56   -2.21  FeSO4:7H2O
	Minium          -16.94   56.75   73.69  Pb3O4
	Mirabilite       -1.42   -2.53   -1.11  Na2SO4:10H2O
	Mn2(SO4)3       -47.11  -52.83   -5.71  Mn2(SO4)3
	Mn3(AsO4)2:8H2O -12.06  -40.76  -28.71  Mn3(AsO4)2:8H2O
	Mn3(PO4)2       -13.40  -37.23  -23.83  Mn3(PO4)2
	MnCl2:4H2O      -10.58   -7.87    2.71  MnCl2:4H2O
	MnHPO4            1.55  -11.40  -12.95  MnHPO4
	MnSO4           -12.33   -9.66    2.67  MnSO4
	Morenosite       -8.99  -11.35   -2.36  NiSO4:7H2O
	Nahcolite        -0.74   -1.29   -0.55  NaHCO3
	Nantokite       -11.07  -17.83   -6.76  CuCl
	Natron           -1.71   -3.02   -1.31  Na2CO3:10H2O
	Nesquehonite     -0.49   -6.11   -5.62  MgCO3:3H2O
	Ni(OH)2          -2.13    8.67   10.80  Ni(OH)2
	Ni3(AsO4)2:8H2O -19.91  -45.42  -25.51  Ni3(AsO4)2:8H2O
	Ni3(PO4)2       -10.59  -41.89  -31.30  Ni3(PO4)2
	Ni4(OH)6SO4     -17.20   14.80   32.00  Ni4(OH)6SO4
	NiCO3            -4.86  -11.70   -6.84  NiCO3
	Nsutite           5.10   47.66   42.56  MnO2
	O2(g)            -8.35  -11.24   -2.89  O2
	Pb(BO2)2         -6.53    1.08    7.61  Pb(BO2)2
	Pb(OH)2          -1.73    6.42    8.15  Pb(OH)2
	Pb2(OH)3Cl       -4.95    3.84    8.79  Pb2(OH)3Cl
	Pb2O(OH)2       -13.33   12.87   26.20  PbO:Pb(OH)2
	Pb2O3           -10.73   50.31   61.04  Pb2O3
	Pb2OCO3          -7.01   -7.51   -0.50  PbO:PbCO3
	Pb3(AsO4)2      -16.60  -52.00  -35.40  Pb3(AsO4)2
	Pb3(PO4)2        -4.26  -23.93  -19.67  Pb3(PO4)2
	Pb3O2CO3        -12.08   -1.06   11.02  PbCO3:2PbO
	Pb3O2SO4        -10.97   -0.57   10.40  PbSO4:2PbO
	Pb4(OH)6SO4     -15.29    5.81   21.10  Pb4(OH)6SO4
	Pb4O3SO4        -16.23    5.87   22.10  PbSO4:3PbO
	PbBr2           -11.34  -16.52   -5.18  PbBr2
	PbBrF            -8.72  -17.21   -8.49  PbBrF
	PbF2            -10.45  -17.89   -7.44  PbF2
	PbHPO4           -3.74  -15.20  -11.46  PbHPO4
	PbMetal         -35.25  -30.98    4.27  Pb
	PbO:0.3H2O       -6.54    6.44   12.98  PbO:0.33H2O
	Phosgenite       -5.73  -25.54  -19.81  PbCl2:PbCO3
	Plattnerite      -5.44   43.86   49.30  PbO2
	Plumbogummite    -0.12  -32.91  -32.79  PbAl3(PO4)2(OH)5:H2O
	Portlandite      -7.97   14.83   22.80  Ca(OH)2
	Pyrochroite      -4.98   10.22   15.20  Mn(OH)2
	Pyrolusite        6.28   47.66   41.38  MnO2
	Retgersite       -9.29  -11.33   -2.04  NiSO4:6H2O
	Rhodochrosite     0.98  -10.15  -11.13  MnCO3
	Rhodochrosite(d)   0.24  -10.15  -10.39  MnCO3
	Scorodite        -7.29  -27.54  -20.25  FeAsO4:2H2O
	Siderite         -7.03  -17.92  -10.89  FeCO3
	Siderite(d)(3)   -7.47  -17.92  -10.45  FeCO3
	Smithsonite      -0.34  -10.34  -10.00  ZnCO3
	SrF2             -3.48  -12.02   -8.54  SrF2
	Strengite         0.55  -25.85  -26.40  FePO4:2H2O
	Strontianite      1.19   -8.08   -9.27  SrCO3
	Tenorite         -0.44    7.18    7.62  CuO
	Thenardite       -2.16   -2.34   -0.18  Na2SO4
	Thermonatrite    -2.97   -2.85    0.12  Na2CO3:H2O
	Trona            -3.36   -4.16   -0.80  NaHCO3:Na2CO3:2H2O
	Tsumebite        -4.21  -14.00   -9.79  Pb2CuPO4(OH)3:3H2O
	Vivianite       -24.68  -60.68  -36.00  Fe3(PO4)2:8H2O
	Witherite        -1.00   -9.57   -8.56  BaCO3
	Zincite(c)       -1.09   10.05   11.14  ZnO
	Zincosite       -12.86   -9.85    3.01  ZnSO4
	Zn(BO2)2         -3.60    4.69    8.29  Zn(BO2)2
	Zn(NO3)2:6H2O   -21.84  -18.40    3.44  Zn(NO3)2:6H2O
	Zn(OH)2-a        -2.42   10.03   12.45  Zn(OH)2
	Zn(OH)2-b        -1.72   10.03   11.75  Zn(OH)2
	Zn(OH)2-c        -2.17   10.03   12.20  Zn(OH)2
	Zn(OH)2-e        -1.47   10.03   11.50  Zn(OH)2
	Zn(OH)2-g        -1.68   10.03   11.71  Zn(OH)2
	Zn2(OH)2SO4      -7.32    0.18    7.50  Zn2(OH)2SO4
	Zn2(OH)3Cl       -4.14   11.06   15.20  Zn2(OH)3Cl
	Zn3(AsO4)2:2.5w -13.68  -41.22  -27.55  Zn3(AsO4)2:2.5H2O
	Zn3(PO4)2:4w     -5.83  -37.87  -32.04  Zn3(PO4)2:4H2O
	Zn3O(SO4)2      -28.67   -9.65   19.02  ZnO:2ZnSO4
	Zn4(OH)6SO4      -8.15   20.25   28.40  Zn4(OH)6SO4
	Zn5(OH)8Cl2      -6.35   32.15   38.50  Zn5(OH)8Cl2
	ZnBr2:2H2O      -18.16  -12.95    5.21  ZnBr2:2H2O
	ZnCl2           -15.01   -7.98    7.03  ZnCl2
	ZnCO3:H2O        -0.10  -10.36  -10.26  ZnCO3:H2O
	ZnF2            -12.76  -14.28   -1.52  ZnF2
	ZnMetal         -53.12  -27.37   25.76  Zn
	ZnO(a)           -1.26   10.05   11.31  ZnO
	ZnSO4:H2O        -9.30   -9.87   -0.57  ZnSO4:H2O

-----------------------------------------
Beginning of batch-reaction calculations.
-----------------------------------------

Reaction step 1.

Using solution 2.	Average Leachate concentrations from Lambton
Using pure phase assemblage 1.	

-------------------------------Phase assemblage--------------------------------

                                                       Moles in assemblage
	Phase               SI log IAP  log KT     Initial       Final       Delta

	Chlorite14A      -0.00   68.38   68.38   1.000e+01   9.999e+00  -1.440e-03
	Illite           -0.00  -40.27  -40.27   1.000e+01   1.004e+01   4.072e-02
	Montmorillonite-Ca  -0.00  -45.03  -45.03   1.000e+01   9.961e+00  -3.894e-02

-----------------------------Solution composition------------------------------

	Elements           Molality       Moles

	Al                4.638e-09   4.637e-09
	As                7.265e-07   7.263e-07
	B                 2.286e-03   2.285e-03
	Ba                8.005e-07   8.003e-07
	Br                2.466e-03   2.465e-03
	C                 1.577e-01   1.577e-01
	Ca                1.946e-02   1.946e-02
	Cl                1.064e+00   1.064e+00
	Cu                1.713e-06   1.713e-06
	F                 7.105e-04   7.103e-04
	Fe                5.360e-05   5.359e-05
	K                 7.535e-04   7.533e-04
	Mg                2.390e-04   2.390e-04
	Mn                4.577e-06   4.576e-06
	N                 5.091e-06   5.090e-06
	Na                1.357e+00   1.357e+00
	Ni                8.881e-05   8.879e-05
	P                 7.029e-04   7.027e-04
	Pb                1.644e-06   1.644e-06
	S                 6.965e-02   6.963e-02
	Si                4.700e-03   4.699e-03
	Sr                3.640e-05   3.639e-05
	Zn                6.045e-04   6.043e-04

----------------------------Description of solution----------------------------

                                       pH  =   8.549      Charge balance
                                       pe  =  10.446      Adjusted to redox equilibrium
                        Activity of water  =   0.956
                           Ionic strength  =   1.365e+00
                       Mass of water (kg)  =   9.997e-01
                 Total alkalinity (eq/kg)  =   1.918e-01
                       Total CO2 (mol/kg)  =   1.577e-01
                      Temperature (deg C)  =  25.000
                  Electrical balance (eq)  =  -1.046e-15
 Percent error, 100*(Cat-|An|)/(Cat+|An|)  =  -0.00
                               Iterations  =  20
                                  Total H  = 1.111350e+02
                                  Total O  = 5.627221e+01

----------------------------Distribution of species----------------------------

	                                           Log       Log         Log 
	Species            Molality    Activity  Molality  Activity     Gamma

	OH-               3.946e-06   3.390e-06    -5.404    -5.470    -0.066
	H+                3.840e-09   2.823e-09    -8.416    -8.549    -0.134
	H2O               5.551e+01   9.559e-01     1.744    -0.020     0.000
Al               4.638e-09
	Al(OH)4-          4.633e-09   3.981e-09    -8.334    -8.400    -0.066
	Al(OH)3           4.555e-12   6.237e-12   -11.341   -11.205     0.136
	Al(OH)2+          1.455e-13   1.250e-13   -12.837   -12.903    -0.066
	AlF3              5.715e-14   7.825e-14   -13.243   -13.106     0.136
	AlF2+             1.623e-14   1.394e-14   -13.790   -13.856    -0.066
	AlF4-             1.616e-14   1.389e-14   -13.791   -13.857    -0.066
	AlF+2             1.145e-16   6.241e-17   -15.941   -16.205    -0.264
	AlOH+2            8.641e-17   4.709e-17   -16.063   -16.327    -0.264
	AlSO4+            2.688e-19   2.309e-19   -18.571   -18.636    -0.066
	Al+3              5.486e-20   1.400e-20   -19.261   -19.854    -0.593
	Al(SO4)2-         4.434e-20   3.810e-20   -19.353   -19.419    -0.066
	AlHSO4+2          1.061e-28   5.780e-29   -27.974   -28.238    -0.264
As(3)            2.167e-33
	H3AsO3            1.548e-33   2.120e-33   -32.810   -32.674     0.136
	H2AsO3-           6.187e-34   5.316e-34   -33.208   -33.274    -0.066
	HAsO3-2           6.895e-40   3.758e-40   -39.161   -39.425    -0.264
	H4AsO3+           0.000e+00   0.000e+00   -41.462   -41.528    -0.066
	AsO3-3            0.000e+00   0.000e+00   -45.983   -46.576    -0.593
	AsS(OH)(HS)-      0.000e+00   0.000e+00  -281.106  -281.172    -0.066
	As3S4(HS)2-       0.000e+00   0.000e+00  -842.290  -842.356    -0.066
As(5)            7.265e-07
	HAsO4-2           7.070e-07   3.853e-07    -6.151    -6.414    -0.264
	H2AsO4-           1.830e-08   1.572e-08    -7.738    -7.804    -0.066
	AsO4-3            1.197e-09   3.056e-10    -8.922    -9.515    -0.593
	H3AsO4            6.466e-15   8.853e-15   -14.189   -14.053     0.136
B                2.286e-03
	H3BO3             1.725e-03   2.362e-03    -2.763    -2.627     0.136
	H2BO3-            5.604e-04   4.815e-04    -3.251    -3.317    -0.066
	BF(OH)3-          4.878e-07   4.192e-07    -6.312    -6.378    -0.066
	BF2(OH)2-         6.881e-11   5.912e-11   -10.162   -10.228    -0.066
	BF3OH-            9.932e-17   8.533e-17   -16.003   -16.069    -0.066
	BF4-              5.326e-22   4.576e-22   -21.274   -21.340    -0.066
Ba               8.005e-07
	BaSO4             3.161e-07   4.327e-07    -6.500    -6.364     0.136
	Ba+2              3.037e-07   1.655e-07    -6.518    -6.781    -0.264
	BaHCO3+           1.157e-07   9.945e-08    -6.937    -7.002    -0.066
	BaCO3             6.504e-08   8.905e-08    -7.187    -7.050     0.136
	BaOH+             2.210e-12   1.899e-12   -11.656   -11.721    -0.066
Br               2.466e-03
	Br-               2.466e-03   2.119e-03    -2.608    -2.674    -0.066
	ZnBr+             4.525e-11   3.888e-11   -10.344   -10.410    -0.066
	NiBr+             2.213e-11   1.901e-11   -10.655   -10.721    -0.066
	PbBr+             2.382e-12   2.047e-12   -11.623   -11.689    -0.066
	ZnBr2             2.395e-14   3.279e-14   -13.621   -13.484     0.136
	PbBr2             1.481e-15   2.028e-15   -14.829   -14.693     0.136
C(-4)            0.000e+00
	CH4               0.000e+00   0.000e+00  -131.049  -130.913     0.136
C(4)             1.577e-01
	HCO3-             9.792e-02   6.268e-02    -1.009    -1.203    -0.194
	NaHCO3            2.434e-02   3.332e-02    -1.614    -1.477     0.136
	NaCO3-            2.134e-02   1.833e-02    -1.671    -1.737    -0.066
	CO3-2             6.203e-03   1.041e-03    -2.207    -2.982    -0.775
	CaCO3             3.562e-03   4.877e-03    -2.448    -2.312     0.136
	CaHCO3+           2.601e-03   2.235e-03    -2.585    -2.651    -0.066
	Zn(CO3)2-2        5.923e-04   3.228e-04    -3.227    -3.491    -0.264
	CO2               3.039e-04   4.162e-04    -3.517    -3.381     0.136
	Ni(CO3)2-2        7.276e-05   3.966e-05    -4.138    -4.402    -0.264
	MgHCO3+           3.549e-05   3.049e-05    -4.450    -4.516    -0.066
	MgCO3             3.018e-05   4.132e-05    -4.520    -4.384     0.136
	NiCO3             1.600e-05   2.191e-05    -4.796    -4.659     0.136
	ZnCO3             1.059e-05   1.450e-05    -4.975    -4.839     0.136
	SrHCO3+           7.670e-06   4.910e-06    -5.115    -5.309    -0.194
	MnCO3             3.787e-06   5.185e-06    -5.422    -5.285     0.136
	SrCO3             3.404e-06   3.404e-06    -5.468    -5.468     0.000
	Pb(CO3)2-2        1.425e-06   7.768e-07    -5.846    -6.110    -0.264
	Cu(CO3)2-2        1.192e-06   6.497e-07    -5.924    -6.187    -0.264
	ZnHCO3+           6.408e-07   5.506e-07    -6.193    -6.259    -0.066
	MnHCO3+           4.075e-07   3.501e-07    -6.390    -6.456    -0.066
	CuCO3             3.619e-07   4.955e-07    -6.441    -6.305     0.136
	PbCO3             2.169e-07   2.969e-07    -6.664    -6.527     0.136
	BaHCO3+           1.157e-07   9.945e-08    -6.937    -7.002    -0.066
	BaCO3             6.504e-08   8.905e-08    -7.187    -7.050     0.136
	NiHCO3+           2.858e-08   2.456e-08    -7.544    -7.610    -0.066
	CuHCO3+           3.239e-09   2.783e-09    -8.490    -8.555    -0.066
	PbHCO3+           9.508e-10   8.169e-10    -9.022    -9.088    -0.066
	FeCO3             3.072e-14   4.206e-14   -13.513   -13.376     0.136
	FeHCO3+           1.228e-14   1.055e-14   -13.911   -13.977    -0.066
Ca               1.946e-02
	Ca+2              1.089e-02   2.795e-03    -1.963    -2.554    -0.591
	CaCO3             3.562e-03   4.877e-03    -2.448    -2.312     0.136
	CaHCO3+           2.601e-03   2.235e-03    -2.585    -2.651    -0.066
	CaSO4             2.125e-03   2.910e-03    -2.673    -2.536     0.136
	CaPO4-            1.567e-04   1.347e-04    -3.805    -3.871    -0.066
	CaHPO4            1.173e-04   1.607e-04    -3.931    -3.794     0.136
	CaF+              1.263e-05   1.085e-05    -4.899    -4.964    -0.066
	CaH2PO4+          3.967e-07   3.408e-07    -6.402    -6.467    -0.066
	CaOH+             1.828e-07   1.571e-07    -6.738    -6.804    -0.066
	CaHSO4+           5.600e-11   4.811e-11   -10.252   -10.318    -0.066
Cl               1.064e+00
	Cl-               1.064e+00   6.214e-01     0.027    -0.207    -0.234
	ZnOHCl            3.551e-07   4.862e-07    -6.450    -6.313     0.136
	MnCl+             1.847e-07   1.587e-07    -6.734    -6.800    -0.066
	ZnCl+             1.358e-07   1.167e-07    -6.867    -6.933    -0.066
	ZnCl3-            6.162e-08   5.294e-08    -7.210    -7.276    -0.066
	ZnCl2             5.546e-08   7.593e-08    -7.256    -7.120     0.136
	MnCl2             3.143e-08   4.304e-08    -7.503    -7.366     0.136
	ZnCl4-2           3.025e-08   1.649e-08    -7.519    -7.783    -0.264
	MnCl3-            8.573e-09   7.366e-09    -8.067    -8.133    -0.066
	NiCl2             7.300e-09   9.995e-09    -8.137    -8.000     0.136
	NiCl+             5.156e-09   4.430e-09    -8.288    -8.354    -0.066
	PbCl+             4.724e-10   4.059e-10    -9.326    -9.392    -0.066
	PbCl2             2.920e-10   3.998e-10    -9.535    -9.398     0.136
	PbCl3-            2.297e-10   1.973e-10    -9.639    -9.705    -0.066
	CuCl+             1.725e-10   1.482e-10    -9.763    -9.829    -0.066
	PbCl4-2           1.077e-10   5.869e-11    -9.968   -10.231    -0.264
	CuCl2             3.612e-11   4.945e-11   -10.442   -10.306     0.136
	CuCl3-2           3.675e-13   2.003e-13   -12.435   -12.698    -0.264
	CuCl2-            2.367e-13   2.034e-13   -12.626   -12.692    -0.066
	CuCl3-            1.269e-13   1.090e-13   -12.897   -12.962    -0.066
	FeCl+             1.681e-15   1.444e-15   -14.775   -14.840    -0.066
	CuCl4-2           6.231e-16   3.396e-16   -15.205   -15.469    -0.264
	FeCl2+            2.721e-16   2.338e-16   -15.565   -15.631    -0.066
	FeCl+2            1.545e-16   8.423e-17   -15.811   -16.075    -0.264
	FeCl3             1.061e-17   1.453e-17   -16.974   -16.838     0.136
Cu(1)            6.042e-13
	CuCl3-2           3.675e-13   2.003e-13   -12.435   -12.698    -0.264
	CuCl2-            2.367e-13   2.034e-13   -12.626   -12.692    -0.066
	Cu+               1.938e-18   1.665e-18   -17.713   -17.778    -0.066
Cu(2)            1.713e-06
	Cu(CO3)2-2        1.192e-06   6.497e-07    -5.924    -6.187    -0.264
	CuCO3             3.619e-07   4.955e-07    -6.441    -6.305     0.136
[...]
Pb               1.859e-06
	Pb(OH)4-2         1.571e-06   1.095e-06    -5.804    -5.960    -0.157
	Pb(OH)3-          2.802e-07   2.560e-07    -6.553    -6.592    -0.039
	Pb(OH)2           8.246e-09   1.194e-08    -8.084    -7.923     0.161
	PbOH+             1.798e-11   1.643e-11   -10.745   -10.784    -0.039
	PbCl+             1.361e-14   1.244e-14   -13.866   -13.905    -0.039
	Pb(HS)2           1.276e-14   1.848e-14   -13.894   -13.733     0.161
	PbCl2             9.429e-15   1.365e-14   -14.026   -13.865     0.161
	PbCl3-            8.218e-15   7.510e-15   -14.085   -14.124    -0.039
	PbCl4-2           3.569e-15   2.489e-15   -14.447   -14.604    -0.157
	Pb+2              6.470e-16   4.512e-16   -15.189   -15.346    -0.157
	PbCO3             2.814e-16   4.075e-16   -15.551   -15.390     0.161
	PbSO4             7.856e-17   1.137e-16   -16.105   -15.944     0.161
	PbBr+             7.418e-17   6.779e-17   -16.130   -16.169    -0.039
	Pb(SO4)2-2        3.837e-19   2.676e-19   -18.416   -18.573    -0.157
	Pb(CO3)2-2        7.628e-20   5.320e-20   -19.118   -19.274    -0.157
	Pb(HS)3-          5.984e-20   5.469e-20   -19.223   -19.262    -0.039
	PbBr2             5.587e-20   8.089e-20   -19.253   -19.092     0.161
	Pb3(OH)4+2        2.113e-21   1.473e-21   -20.675   -20.832    -0.157
	PbHCO3+           2.230e-22   2.038e-22   -21.652   -21.691    -0.039
	Pb2OH+3           3.734e-25   1.660e-25   -24.428   -24.780    -0.352
	PbF+              0.000e+00   0.000e+00   -44.056   -44.096    -0.039
	PbF2              0.000e+00   0.000e+00   -72.946   -72.786     0.161
	PbNO3+            0.000e+00   0.000e+00   -92.573   -92.612    -0.039
	PbF3-             0.000e+00   0.000e+00  -101.886  -101.926    -0.039
	PbF4-2            0.000e+00   0.000e+00  -132.089  -132.246    -0.157
S(-2)            2.078e-03
	S5-2              1.980e-04   7.344e-05    -3.703    -4.134    -0.431
	S4-2              1.356e-04   4.285e-05    -3.868    -4.368    -0.500
	S6-2              9.083e-05   3.801e-05    -4.042    -4.420    -0.378
	HS-               1.623e-07   1.483e-07    -6.790    -6.829    -0.039
	S3-2              5.962e-08   1.510e-08    -7.225    -7.821    -0.597
	S-2               5.005e-08   3.491e-08    -7.301    -7.457    -0.157
	S2-2              4.265e-09   8.569e-10    -8.370    -9.067    -0.697
	Zn(HS)2           2.842e-11   4.115e-11   -10.546   -10.386     0.161
	H2S               4.596e-13   6.654e-13   -12.338   -12.177     0.161
	Pb(HS)2           1.276e-14   1.848e-14   -13.894   -13.733     0.161
	Cu(HS)3-          1.671e-15   1.527e-15   -14.777   -14.816    -0.039
	Zn(HS)3-          9.654e-17   8.822e-17   -16.015   -16.054    -0.039
	Pb(HS)3-          5.984e-20   5.469e-20   -19.223   -19.262    -0.039
	Fe(HS)2           3.077e-21   4.455e-21   -20.512   -20.351     0.161
	Fe(HS)3-          7.874e-26   7.195e-26   -25.104   -25.143    -0.039
	AsS(OH)(HS)-      7.839e-26   7.164e-26   -25.106   -25.145    -0.039
	As3S4(HS)2-       0.000e+00   0.000e+00   -81.720   -81.759    -0.039
S(6)             9.100e-03
	CaSO4             3.937e-03   5.701e-03    -2.405    -2.244     0.161
	SO4-2             3.582e-03   4.483e-04    -2.446    -3.348    -0.903
	NaSO4-            1.580e-03   1.444e-03    -2.801    -2.841    -0.039
	SrSO4             1.079e-06   1.562e-06    -5.967    -5.806     0.161
	MnSO4             4.330e-08   6.270e-08    -7.364    -7.203     0.161
	KSO4-             2.903e-08   2.653e-08    -7.537    -7.576    -0.039
	NH4SO4-           8.916e-12   8.147e-12   -11.050   -11.089    -0.039
	NiSO4             8.915e-13   1.291e-12   -12.050   -11.889     0.161
	MgSO4             1.608e-13   2.329e-13   -12.794   -12.633     0.161
	ZnSO4             1.559e-13   2.257e-13   -12.807   -12.646     0.161
	HSO4-             2.447e-14   2.237e-14   -13.611   -13.650    -0.039
	CaHSO4+           1.876e-14   1.714e-14   -13.727   -13.766    -0.039
	Zn(SO4)2-2        1.179e-15   8.226e-16   -14.928   -15.085    -0.157
	PbSO4             7.856e-17   1.137e-16   -16.105   -15.944     0.161
	Ni(SO4)2-2        4.456e-17   3.107e-17   -16.351   -16.508    -0.157
	FeSO4             1.251e-17   1.812e-17   -16.903   -16.742     0.161
	Pb(SO4)2-2        3.837e-19   2.676e-19   -18.416   -18.573    -0.157
	CuSO4             3.726e-22   5.395e-22   -21.429   -21.268     0.161
	FeHSO4+           6.688e-29   6.111e-29   -28.175   -28.214    -0.039
	AlSO4+            4.329e-30   3.956e-30   -29.364   -29.403    -0.039
	BaSO4             1.552e-31   2.247e-31   -30.809   -30.648     0.161
	Al(SO4)2-         6.137e-32   5.608e-32   -31.212   -31.251    -0.039
	FeSO4+            7.913e-38   7.231e-38   -37.102   -37.141    -0.039
	Fe(SO4)2-         7.761e-40   7.092e-40   -39.110   -39.149    -0.039
	AlHSO4+2          0.000e+00   0.000e+00   -42.588   -42.745    -0.157
	FeHSO4+2          0.000e+00   0.000e+00   -48.846   -49.003    -0.157
Si               9.542e-02
	H3SiO4-           8.115e-02   7.416e-02    -1.091    -1.130    -0.039
	H2SiO4-2          1.410e-02   9.830e-03    -1.851    -2.007    -0.157
	H4SiO4            1.783e-04   2.581e-04    -3.749    -3.588     0.161
	SiF6-2            0.000e+00   0.000e+00  -202.337  -202.493    -0.157
Sr               7.757e-05
	Sr+2              7.372e-05   1.788e-05    -4.132    -4.748    -0.615
	SrOH+             2.774e-06   1.712e-06    -5.557    -5.766    -0.210
	SrSO4             1.079e-06   1.562e-06    -5.967    -5.806     0.161
	SrCO3             5.930e-10   5.930e-10    -9.227    -9.227     0.000
	SrHCO3+           2.458e-13   1.555e-13   -12.609   -12.808    -0.199
Zn               9.114e-04
	Zn(OH)3-          6.097e-04   5.571e-04    -3.215    -3.254    -0.039
	Zn(OH)4-2         2.365e-04   1.649e-04    -3.626    -3.783    -0.157
	Zn(OH)2           6.515e-05   9.433e-05    -4.186    -4.025     0.161
	ZnOHCl            6.354e-08   9.200e-08    -7.197    -7.036     0.161
	ZnOH+             4.814e-09   4.399e-09    -8.318    -8.357    -0.039
	Zn(HS)2           2.842e-11   4.115e-11   -10.546   -10.386     0.161
	ZnCl+             4.381e-12   4.004e-12   -11.358   -11.398    -0.039
	Zn+2              3.080e-12   2.148e-12   -11.511   -11.668    -0.157
	ZnCl3-            2.469e-12   2.256e-12   -11.608   -11.647    -0.039
	ZnCl2             2.005e-12   2.903e-12   -11.698   -11.537     0.161
	ZnCl4-2           1.123e-12   7.829e-13   -11.950   -12.106    -0.157
	ZnSO4             1.559e-13   2.257e-13   -12.807   -12.646     0.161
	ZnCO3             1.538e-14   2.228e-14   -13.813   -13.652     0.161
	ZnBr+             1.577e-15   1.442e-15   -14.802   -14.841    -0.039
	Zn(SO4)2-2        1.179e-15   8.226e-16   -14.928   -15.085    -0.157
	Zn(HS)3-          9.654e-17   8.822e-17   -16.015   -16.054    -0.039
	Zn(CO3)2-2        3.549e-17   2.475e-17   -16.450   -16.606    -0.157
	ZnBr2             1.011e-18   1.464e-18   -17.995   -17.834     0.161
	ZnHCO3+           1.683e-19   1.538e-19   -18.774   -18.813    -0.039
	ZnF+              0.000e+00   0.000e+00   -40.479   -40.518    -0.039

------------------------------Saturation indices-------------------------------

	Phase               SI log IAP  log KT

	Adularia          1.75  -18.83  -20.57  KAlSi3O8
	Al(OH)3(a)       -3.54    7.26   10.80  Al(OH)3
	AlAsO4:2H2O     -28.39  -44.23  -15.84  AlAsO4:2H2O
	Albite            4.06  -13.94  -18.00  NaAlSi3O8
	AlumK           -36.38  -41.55   -5.17  KAl(SO4)2:12H2O
	Alunite         -25.41  -26.81   -1.40  KAl3(SO4)2(OH)6
	Analcime          2.29  -10.41  -12.70  NaAlSi2O6:H2O
	Anglesite       -10.90  -18.69   -7.79  PbSO4
	Anhydrite        -0.18   -4.54   -4.36  CaSO4
	Anilite          19.77  -12.11  -31.88  Cu0.25Cu1.5S
	Annite            9.56  -76.09  -85.64  KFe3AlSi3O10(OH)2
	Anorthite         5.22  -14.49  -19.71  CaAl2Si2O8
	Antlerite       -23.24  -14.95    8.29  Cu3(OH)4SO4
	Aragonite        -0.14   -8.48   -8.34  CaCO3
	Arsenolite      -33.11  -34.49   -1.38  As2O3
	Artinite        -15.71   -6.11    9.60  MgCO3:Mg(OH)2:3H2O
	As2O5(cr)       -68.97  -60.74    8.23  As2O5
	As2S3(am)       -46.89  -91.79  -44.90  As2S3
	As_native       -14.05  -26.58  -12.53  As
	Atacamite       -11.14   -3.80    7.34  Cu2(OH)3Cl
	Azurite         -33.81  -30.06    3.75  Cu3(OH)2(CO3)2
	Ba3(AsO4)2      -69.17 -119.28  -50.11  Ba3(AsO4)2
	BaF2            -84.24  -90.00   -5.76  BaF2
	Barite          -23.38  -33.35   -9.97  BaSO4
	Basaluminite    -21.55    1.15   22.70  Al4(OH)10SO4
	Beidellite       -0.78  -46.05  -45.27  (NaKMg0.5)0.11Al2.33Si3.67O10(OH)2
	Bianchite       -13.36  -15.13   -1.76  ZnSO4:6H2O
	Birnessite      -18.92   24.68   43.60  MnO2
	Bixbyite         -7.27   -7.88   -0.61  Mn2O3
	BlaubleiI         9.75  -14.41  -24.16  Cu0.9Cu0.2S
	BlaubleiII       13.93  -13.35  -27.28  Cu0.6Cu0.8S
	Boehmite         -1.31    7.28    8.58  AlOOH
	Brochantite     -25.98  -10.64   15.34  Cu4(OH)6SO4
	Brucite          -3.95   12.89   16.84  Mg(OH)2
	Bunsenite         1.28   13.73   12.45  NiO
	Ca3(AsO4)2:4w   -14.04  -32.94  -18.91  Ca3(AsO4)2:4H2O
	Calcite           0.00   -8.48   -8.48  CaCO3
	Celestite        -1.46   -8.10   -6.63  SrSO4
	Cerrusite        -9.50  -22.63  -13.13  PbCO3
	CH4(g)          -12.84  -15.70   -2.86  CH4
	Chalcanthite    -21.03  -23.67   -2.64  CuSO4:5H2O
	Chalcedony        0.00   -3.55   -3.55  SiO2
	Chalcocite       23.40  -11.22  -34.62  Cu2S
	Chalcopyrite     10.32  -24.95  -35.27  CuFeS2
	Chlorite14A      -0.00   68.38   68.38  Mg5Al2Si3O10(OH)8
	Chlorite7A       -3.37   68.38   71.75  Mg5Al2Si3O10(OH)8
	Chrysotile       -0.62   31.58   32.20  Mg3Si2O5(OH)4
	Claudetite      -33.15  -34.49   -1.34  As2O3
	Clinoenstatite   -1.99    9.36   11.34  MgSiO3
	Clpyromorphite  -39.21 -123.64  -84.43  Pb5(PO4)3Cl
	CO2(g)          -13.70  -15.16   -1.47  CO2
	Cotunnite       -10.89  -15.66   -4.77  PbCl2
	Covellite         7.50  -14.77  -22.27  CuS
	Cristobalite      0.04   -3.55   -3.59  SiO2
	Cu(OH)2          -4.33    4.31    8.64  Cu(OH)2
	Cu2(OH)3NO3     -91.32  -82.08    9.24  Cu2(OH)3NO3
	Cu2SO4          -18.08  -20.03   -1.95  Cu2SO4
	Cu3(AsO4)2:6w   -54.96  -90.08  -35.12  Cu3(AsO4)2:6H2O
	Cu3(PO4)2       -55.01  -91.86  -36.85  Cu3(PO4)2
	Cu3(PO4)2:3H2O  -56.79  -91.91  -35.12  Cu3(PO4)2:3H2O
	CuBr             -2.72  -10.93   -8.21  CuBr
	CuCO3           -17.88  -27.51   -9.63  CuCO3
	CuF             -45.42  -38.34    7.08  CuF
	CuF2            -79.61  -80.23   -0.62  CuF2
	CuF2:2H2O       -75.72  -80.27   -4.55  CuF2:2H2O
	CuMetal           9.59    0.83   -8.76  Cu
	CuOCuSO4        -30.78  -19.25   11.53  CuO:CuSO4
	CupricFerrite    -3.53    2.35    5.88  CuFe2O4
	Cuprite           9.43    7.88   -1.55  Cu2O
	CuprousFerrite   11.87    2.95   -8.92  CuFeO2
	CuSO4           -26.59  -23.58    3.01  CuSO4
	Diaspore          0.40    7.28    6.88  AlOOH
	Diopside          9.28   29.17   19.89  CaMgSi2O6
	Dioptase         -5.74    0.76    6.50  CuSiO3:H2O
	Djurleite        22.47  -11.45  -33.92  Cu0.066Cu1.868S
	Dolomite        -10.33  -27.42  -17.09  CaMg(CO3)2
	Dolomite(d)     -10.88  -27.42  -16.54  CaMg(CO3)2
	Epsomite        -12.99  -15.13   -2.14  MgSO4:7H2O
	FCO3Apatite     -56.43 -170.83 -114.40  Ca9.316Na0.36Mg0.144(PO4)4.8(CO3)1.2F2.48
	Fe(OH)2.7Cl.3    -1.71   -4.75   -3.04  Fe(OH)2.7Cl0.3
	Fe(OH)3(a)       -5.91   -1.02    4.89  Fe(OH)3
	Fe3(OH)8        -13.36    6.86   20.22  Fe3(OH)8
	FeS(ppt)         -6.27  -10.18   -3.92  FeS
	Fluorapatite    -28.09  -45.69  -17.60  Ca5(PO4)3F
	Fluorite        -50.60  -61.20  -10.60  CaF2
	Forsterite       -6.04   22.26   28.31  Mg2SiO4
	Galena            2.90   -9.88  -12.78  PbS
	Gibbsite         -0.85    7.26    8.11  Al(OH)3
	Goethite         -0.00   -1.00   -1.00  FeOOH
	Goslarite       -13.19  -15.15   -1.96  ZnSO4:7H2O
	Greenalite       -1.20   19.61   20.81  Fe3Si2O5(OH)4
	Greigite        -24.43  -69.46  -45.03  Fe3S4
	Gypsum           -0.00   -4.58   -4.58  CaSO4:2H2O
	H2(g)            -6.24   -9.39   -3.15  H2
	H2O(g)           -1.53   -0.02    1.51  H2O
	H2S(g)          -11.18  -12.18   -1.00  H2S
	Halite           -1.93   -0.35    1.58  NaCl
	Halloysite       -5.06    7.43   12.50  Al2Si2O5(OH)4
	Hausmannite       0.56   61.59   61.03  Mn3O4
	Hematite          2.03   -1.98   -4.01  Fe2O3
	Hinsdalite      -46.81  -49.31   -2.50  PbAl3PO4SO4(OH)6
	Huntite         -35.33  -65.30  -29.97  CaMg3(CO3)4
	Hxypyromorphite -48.42 -111.21  -62.79  Pb5(PO4)3OH
	Hydrocerrusite  -18.60  -36.06  -17.46  Pb(OH)2:2PbCO3
	Hydromagnesite  -54.18  -62.94   -8.76  Mg5(CO3)4(OH)2:4H2O
	Hydroxyapatite   -0.00   -3.42   -3.42  Ca5(PO4)3OH
	Illite           -0.00  -40.27  -40.27  K0.6Mg0.25Al2.3Si3.5O10(OH)2
	Jarosite(ss)    -43.11  -52.94   -9.83  (K0.77Na0.03H0.2)Fe3(SO4)2(OH)6
	Jarosite-K      -42.43  -51.64   -9.21  KFe3(SO4)2(OH)6
	Jarosite-Na     -41.48  -46.76   -5.28  NaFe3(SO4)2(OH)6
	JarositeH       -53.48  -58.87   -5.39  (H3O)Fe3(SO4)2(OH)6
	Jurbanite       -17.40  -20.63   -3.23  AlOHSO4
	Kaolinite        -0.00    7.43    7.43  Al2Si2O5(OH)4
	Kmica             5.69   18.40   12.70  KAl3Si3O10(OH)2
	Langite         -27.45  -10.66   16.79  Cu4(OH)6SO4:H2O
	Larnakite        -9.20   -9.48   -0.28  PbO:PbSO4
	Laumontite        9.29  -21.67  -30.96  CaAl2Si4O12:4H2O
	Laurionite       -3.86   -3.23    0.62  PbOHCl
	Leonhardite      26.44  -43.32  -69.76  Ca2Al4Si8O24:7H2O
	Litharge         -3.50    9.22   12.72  PbO
	Mackinawite      -5.53  -10.18   -4.65  FeS
	Magadiite         1.45  -12.85  -14.30  NaSi7O13(OH)3:3H2O
	Maghemite        -8.37   -1.98    6.39  Fe2O3
	Magnesite       -10.91  -18.94   -8.03  MgCO3
	Magnetite         3.20    6.94    3.74  Fe3O4
	Malachite       -18.02  -12.87    5.15  Cu2(OH)2CO3
	Manganite        -3.78   21.56   25.34  MnOOH
	Massicot         -3.69    9.22   12.91  PbO
	Matlockite      -36.08  -45.51   -9.43  PbClF
	Melanothallite  -24.28  -20.55    3.73  CuCl2
	Melanterite     -16.91  -19.12   -2.21  FeSO4:7H2O
	Millerite         2.67   -5.37   -8.04  NiS
	Minium          -39.82   33.87   73.69  Pb3O4
	Mirabilite       -2.80   -3.92   -1.11  Na2SO4:10H2O
	Mn2(SO4)3       -85.90  -91.61   -5.71  Mn2(SO4)3
	Mn3(AsO4)2:8H2O -19.03  -47.74  -28.71  Mn3(AsO4)2:8H2O
	Mn3(PO4)2       -25.65  -49.48  -23.83  Mn3(PO4)2
	MnCl2:4H2O       -9.21   -6.50    2.71  MnCl2:4H2O
	MnHPO4           -8.69  -21.63  -12.95  MnHPO4
	MnS(Green)       -4.44   -0.64    3.80  MnS
	MnSO4           -12.12   -9.45    2.67  MnSO4
	Montmorillonite-Aberdeen   1.68  -28.01  -29.69  (HNaK)0.14Mg0.45Fe0.33Al1.47Si3.82O10(OH)2
	Montmorillonite-BelleFourche   2.04  -32.88  -34.91  (HNaK)0.09Mg0.29Fe0.24Al1.57Si3.93O10(OH)2
	Montmorillonite-Ca  -0.00  -45.03  -45.03  Ca0.165Al2.33Si3.67O10(OH)2
	Morenosite      -11.95  -14.31   -2.36  NiSO4:7H2O
	N2(g)            -2.21   -5.47   -3.26  N2
	Nahcolite        -8.89   -9.44   -0.55  NaHCO3
	Nantokite        -1.74   -8.50   -6.76  CuCl
	Natron           -6.54   -7.85   -1.31  Na2CO3:10H2O
	Nesquehonite    -13.37  -18.99   -5.62  MgCO3:3H2O
	NH3(g)           -7.58   -5.81    1.77  NH3
	Ni(OH)2           2.91   13.71   10.80  Ni(OH)2
	Ni2SiO4           9.37   23.91   14.54  Ni2SiO4
	Ni3(AsO4)2:8H2O -36.41  -61.92  -25.51  Ni3(AsO4)2:8H2O
	Ni3(PO4)2       -32.36  -63.66  -31.30  Ni3(PO4)2
	Ni4(OH)6SO4      -5.04   26.96   32.00  Ni4(OH)6SO4
	NiCO3           -11.27  -18.11   -6.84  NiCO3
	Nsutite         -17.88   24.68   42.56  MnO2
	O2(g)           -70.74  -73.63   -2.89  O2
	Orpiment        -45.49  -91.79  -46.30  As2S3
	Pb(BO2)2         -9.69   -2.08    7.61  Pb(BO2)2
	Pb(OH)2           1.05    9.20    8.15  Pb(OH)2
	Pb2(OH)3Cl       -2.83    5.96    8.79  Pb2(OH)3Cl
	Pb2O(OH)2        -7.79   18.41   26.20  PbO:Pb(OH)2
	Pb2O3           -36.39   24.65   61.04  Pb2O3
	Pb2OCO3         -12.91  -13.41   -0.50  PbO:PbCO3
	Pb2SiO4          -4.88   14.88   19.76  Pb2SiO4
	Pb3(AsO4)2      -39.91  -75.32  -35.40  Pb3(AsO4)2
	Pb3(PO4)2       -32.84  -52.51  -19.67  Pb3(PO4)2
	Pb3O2CO3        -15.22   -4.20   11.02  PbCO3:2PbO
	Pb3O2SO4        -10.66   -0.26   10.40  PbSO4:2PbO
	Pb4(OH)6SO4     -12.20    8.90   21.10  Pb4(OH)6SO4
	Pb4O3SO4        -13.15    8.95   22.10  PbSO4:3PbO
	PbBr2           -15.35  -20.53   -5.18  PbBr2
	PbBrF           -39.45  -47.94   -8.49  PbBrF
	PbF2            -67.91  -75.35   -7.44  PbF2
	PbHPO4          -19.41  -30.87  -11.46  PbHPO4
	PbMetal          -1.28    2.99    4.27  Pb
	PbO:0.3H2O       -3.77    9.21   12.98  PbO:0.33H2O
	PbSiO3           -1.66    5.66    7.32  PbSiO3
	Phillipsite       3.47  -16.40  -19.87  Na0.5K0.5AlSi3O8:H2O
	Phlogopite       -0.76   42.54   43.30  KMg3AlSi3O10(OH)2
	Phosgenite      -18.48  -38.29  -19.81  PbCl2:PbCO3
	Plattnerite     -33.86   15.44   49.30  PbO2
	Plumbogummite   -41.05  -73.84  -32.79  PbAl3(PO4)2(OH)5:H2O
	Portlandite       0.55   23.35   22.80  Ca(OH)2
	Prehnite         17.00    5.30  -11.70  Ca2Al2Si3O10(OH)2
	Pyrite           -4.58  -23.06  -18.48  FeS2
	Pyrochroite       3.24   18.44   15.20  Mn(OH)2
	Pyrolusite      -16.70   24.68   41.38  MnO2
	Pyrophyllite      3.33  -44.98  -48.31  Al2Si4O10(OH)2
	Quartz            0.43   -3.55   -3.98  SiO2
	Realgar         -19.51  -39.46  -19.94  AsS
	Retgersite      -12.25  -14.29   -2.04  NiSO4:6H2O
	Rhodochrosite    -2.26  -13.39  -11.13  MnCO3
	Rhodochrosite(d)  -3.00  -13.39  -10.39  MnCO3
	Scorodite       -32.26  -52.51  -20.25  FeAsO4:2H2O
	Sepiolite        -0.67   15.09   15.76  Mg2Si3O7.5OH:3H2O
	Sepiolite(d)     -3.57   15.09   18.66  Mg2Si3O7.5OH:3H2O
	Siderite        -12.04  -22.93  -10.89  FeCO3
	Siderite(d)(3)  -12.48  -22.93  -10.45  FeCO3
	Silicagel        -0.53   -3.55   -3.02  SiO2
	SiO2(a)          -0.84   -3.55   -2.71  SiO2
	Smithsonite      -8.95  -18.95  -10.00  ZnCO3
	Sphalerite        5.41   -6.21  -11.62  ZnS
	SrF2            -56.21  -64.75   -8.54  SrF2
	Strengite       -27.05  -53.45  -26.40  FePO4:2H2O
	Strontianite     -2.76  -12.03   -9.27  SrCO3
	Sulfur          -10.77  -25.79  -15.03  S
	Talc              3.10   24.50   21.40  Mg3Si4O10(OH)2
	Tenorite         -3.29    4.33    7.62  CuO
	Thenardite       -3.55   -3.73   -0.18  Na2SO4
	Thermonatrite    -7.81   -7.69    0.12  Na2CO3:H2O
	Tremolite        26.26   82.83   56.57  Ca2Mg5Si8O22(OH)2
	Trona           -16.35  -17.14   -0.80  NaHCO3:Na2CO3:2H2O
	Tsumebite       -19.96  -29.75   -9.79  Pb2CuPO4(OH)3:3H2O
	Vivianite       -42.25  -78.25  -36.00  Fe3(PO4)2:8H2O
	Wairakite         5.08  -21.63  -26.71  CaAl2Si4O12:2H2O
	Willemite         6.90   22.23   15.33  Zn2SiO4
	Witherite       -28.72  -37.28   -8.56  BaCO3
	Wurtzite          3.47   -6.21   -9.68  ZnS
	Zincite(c)        1.75   12.89   11.14  ZnO
	Zincosite       -18.03  -15.02    3.01  ZnSO4
	Zn(BO2)2         -6.69    1.60    8.29  Zn(BO2)2
	Zn(NO3)2:6H2O  -172.09 -168.65    3.44  Zn(NO3)2:6H2O
	Zn(OH)2-a         0.42   12.87   12.45  Zn(OH)2
	Zn(OH)2-b         1.12   12.87   11.75  Zn(OH)2
	Zn(OH)2-c         0.67   12.87   12.20  Zn(OH)2
	Zn(OH)2-e         1.37   12.87   11.50  Zn(OH)2
	Zn(OH)2-g         1.16   12.87   11.71  Zn(OH)2
	Zn2(OH)2SO4      -9.64   -2.14    7.50  Zn2(OH)2SO4
	Zn2(OH)3Cl       -1.88   13.32   15.20  Zn2(OH)3Cl
	Zn3(AsO4)2:2.5w -36.78  -64.33  -27.55  Zn3(AsO4)2:2.5H2O
	Zn3(PO4)2:4w    -34.21  -66.25  -32.04  Zn3(PO4)2:4H2O
	Zn3O(SO4)2      -36.16  -17.14   19.02  ZnO:2ZnSO4
	Zn4(OH)6SO4      -4.79   23.61   28.40  Zn4(OH)6SO4
	Zn5(OH)8Cl2       1.01   39.51   38.50  Zn5(OH)8Cl2
	ZnBr2:2H2O      -22.10  -16.89    5.21  ZnBr2:2H2O
	ZnCl2           -19.02  -11.99    7.03  ZnCl2
	ZnCO3:H2O        -8.71  -18.97  -10.26  ZnCO3:H2O
	ZnF2            -70.15  -71.67   -1.52  ZnF2
	ZnMetal         -19.09    6.67   25.76  Zn
	ZnO(a)            1.58   12.89   11.31  ZnO
	ZnS(a)            2.84   -6.21   -9.05  ZnS
	ZnSiO3            6.41    9.34    2.93  ZnSiO3
	ZnSO4:H2O       -14.46  -15.03   -0.57  ZnSO4:H2O

------------------
End of simulation.
------------------

------------------------------------
Reading input data for simulation 5.
------------------------------------

-----------
End of run.
-----------

No memory leaks
