WARNING: Database file from DATABASE keyword is used; command line argument ignored.
   Input file: lassin
  Output file: lassin.out
Database file: pitzer-04.dat

------------------
Reading data base.
------------------

	SOLUTION_MASTER_SPECIES
	SOLUTION_SPECIES
	PHASES
	PITZER
	EXCHANGE_MASTER_SPECIES
	EXCHANGE_SPECIES
	SURFACE_MASTER_SPECIES
	SURFACE_SPECIES
	END
------------------------------------
Reading input data for simulation 1.
------------------------------------

	DATABASE pitzer-04.dat
	PHASES
	Fix_pH
		H+ = H+
		log_k		0
	SOLUTION 1
	pH 7
	units	mol/kgw
	END
-------------------------------------------
Beginning of initial solution calculations.
-------------------------------------------

Initial solution 1.	

-----------------------------Solution composition------------------------------

	Elements           Molality       Moles

	Pure water     

----------------------------Description of solution----------------------------

                                       pH  =   7.000    
                                       pe  =   4.000    
                        Activity of water  =   1.000
                           Ionic strength  =   1.003e-07
                       Mass of water (kg)  =   1.000e+00
                 Total alkalinity (eq/kg)  =   4.618e-10
                    Total carbon (mol/kg)  =   0.000e+00
                       Total CO2 (mol/kg)  =   0.000e+00
                      Temperature (deg C)  =  25.00
                  Electrical balance (eq)  =  -4.618e-10
 Percent error, 100*(Cat-|An|)/(Cat+|An|)  =  -0.23
                               Iterations  =   3
                         Gamma iterations  =   2
                      Osmotic coefficient  =   0.99988
                                  Total H  = 1.110124e+02
                                  Total O  = 5.550622e+01

----------------------------Distribution of species----------------------------

                                                    MacInnes  MacInnes
                                MacInnes       Log       Log       Log    mole V
   Species          Molality    Activity  Molality  Activity     Gamma   cm3/mol

   OH-             1.005e-07   1.005e-07    -6.998    -6.998    -0.000     (0)  
   H+              1.000e-07   1.000e-07    -7.000    -7.000    -0.000      0.00
   H2O             5.551e+01   1.000e+00     1.744    -0.000     0.000     18.07
H(0)          1.587e-25
   H2              7.935e-26   7.935e-26   -25.100   -25.100     0.000     (0)  
O(0)          0.000e+00
   O2              0.000e+00   0.000e+00   -41.995   -41.995     0.000     (0)  

------------------------------Saturation indices-------------------------------

	Phase               SI   log IAP   log K(298 K,   1 atm)

	Fix_pH           -7.00     -7.00    0.00  H+
	H2O(g)           -1.51     -0.00    1.51  H2O
	O2(g)           -39.10    -42.00   -2.90  O2


------------------
End of simulation.
------------------

------------------------------------
Reading input data for simulation 2.
------------------------------------

	USE solution 1
	REACTION 1
	FeCl3 1
	FeCl2 1
	0.5 mmol
	SAVE solution 2
	END
-----------------------------------------
Beginning of batch-reaction calculations.
-----------------------------------------

Reaction step 1.

Using solution 1.	
Using reaction 1.	

Reaction 1.	

	  5.000e-04 moles of the following reaction have been added:

	                 Relative
	Reactant            moles

	FeCl2                1.00000
	FeCl3                1.00000

	                 Relative
	Element             moles
	Cl                   5.00000
	Fe                   2.00000

-----------------------------Solution composition------------------------------

	Elements           Molality       Moles

	Cl                2.500e-03   2.500e-03
	Fe                1.000e-03   1.000e-03

----------------------------Description of solution----------------------------

                                       pH  =   6.770      Charge balance
                                       pe  =  12.849      Adjusted to redox equilibrium
                        Activity of water  =   1.000
                           Ionic strength  =   4.500e-03
                       Mass of water (kg)  =   1.000e+00
                 Total alkalinity (eq/kg)  =  -9.999e-04
                    Total carbon (mol/kg)  =   0.000e+00
                       Total CO2 (mol/kg)  =   0.000e+00
                      Temperature (deg C)  =  25.00
                  Electrical balance (eq)  =  -4.619e-10
 Percent error, 100*(Cat-|An|)/(Cat+|An|)  =  -0.00
                               Iterations  =  16
                         Gamma iterations  =   3
                      Osmotic coefficient  =   0.94020
                                  Total H  = 1.110124e+02
                                  Total O  = 5.550622e+01

----------------------------Distribution of species----------------------------

                                                    MacInnes  MacInnes
                                MacInnes       Log       Log       Log    mole V
   Species          Molality    Activity  Molality  Activity     Gamma   cm3/mol

   H+              1.842e-07   1.699e-07    -6.735    -6.770    -0.035      0.00
   OH-             6.391e-08   5.912e-08    -7.194    -7.228    -0.034     (0)  
   H2O             5.551e+01   9.999e-01     1.744    -0.000     0.000     18.07
Cl            2.500e-03
   Cl-             2.500e-03   2.325e-03    -2.602    -2.634    -0.032     (0)  
Fe(2)         5.001e-04
   Fe+2            5.001e-04   3.745e-04    -3.301    -3.427    -0.126     (0)  
Fe(3)         4.999e-04
   Fe+3            4.999e-04   2.592e-04    -3.301    -3.586    -0.285     (0)  
H(0)          0.000e+00
   H2              0.000e+00   0.000e+00   -42.338   -42.338     0.000     (0)  
O(0)          6.039e-08
   O2              3.019e-08   3.019e-08    -7.520    -7.520     0.000     (0)  

------------------------------Saturation indices-------------------------------

	Phase               SI   log IAP   log K(298 K,   1 atm)

	FeCl2:4H2O      -11.72     -8.69    3.03  FeCl2:4H2O
	FeCl3:6H2O      -14.37    -11.49    2.88  FeCl3:6H2O
	Fix_pH           -6.77     -6.77    0.00  H+
	H2O(g)           -1.51     -0.00    1.51  H2O
	O2(g)            -4.62     -7.52   -2.90  O2


------------------
End of simulation.
------------------

------------------------------------
Reading input data for simulation 3.
------------------------------------

	USE solution 2
	REACTION
		O2 1
		2 mmol in 2 steps
-----------------------------------------
Beginning of batch-reaction calculations.
-----------------------------------------

Reaction step 1.

Using solution 2.	Solution after simulation 2.
Using reaction 1.	

Reaction 1.	

	  1.000e-03 moles of the following reaction have been added:

	                 Relative
	Reactant            moles

	O2                   1.00000

	                 Relative
	Element             moles
	O                    2.00000

-----------------------------Solution composition------------------------------

	Elements           Molality       Moles

	Cl                2.500e-03   2.500e-03
	Fe                1.000e-03   1.000e-03

----------------------------Description of solution----------------------------

                                       pH  =   7.898      Charge balance
                                       pe  =  12.851      Adjusted to redox equilibrium
                        Activity of water  =   1.000
                           Ionic strength  =   4.503e-03
                       Mass of water (kg)  =   1.000e+00
                 Total alkalinity (eq/kg)  =  -1.001e-03
                    Total carbon (mol/kg)  =   0.000e+00
                       Total CO2 (mol/kg)  =   0.000e+00
                      Temperature (deg C)  =  25.00
                  Electrical balance (eq)  =  -4.619e-10
 Percent error, 100*(Cat-|An|)/(Cat+|An|)  =  -0.00
                               Iterations  =  20
                         Gamma iterations  =   2
                      Osmotic coefficient  =   0.95345
                                  Total H  = 1.110124e+02
                                  Total O  = 5.550822e+01

----------------------------Distribution of species----------------------------

                                                    MacInnes  MacInnes
                                MacInnes       Log       Log       Log    mole V
   Species          Molality    Activity  Molality  Activity     Gamma   cm3/mol

   OH-             8.589e-07   7.945e-07    -6.066    -6.100    -0.034     (0)  
   H+              1.371e-08   1.264e-08    -7.863    -7.898    -0.035      0.00
   H2O             5.551e+01   9.999e-01     1.744    -0.000     0.000     18.07
Cl            2.500e-03
   Cl-             2.500e-03   2.324e-03    -2.602    -2.634    -0.032     (0)  
Fe(2)         4.992e-04
   Fe+2            4.992e-04   3.737e-04    -3.302    -3.427    -0.126     (0)  
Fe(3)         5.008e-04
   Fe+3            5.008e-04   2.596e-04    -3.300    -3.586    -0.285     (0)  
H(0)          0.000e+00
   H2              0.000e+00   0.000e+00   -44.598   -44.598     0.000     (0)  
O(0)          2.000e-03
   O2              9.998e-04   9.998e-04    -3.000    -3.000     0.000     (0)  

------------------------------Saturation indices-------------------------------

	Phase               SI   log IAP   log K(298 K,   1 atm)

	FeCl2:4H2O      -11.72     -8.69    3.03  FeCl2:4H2O
	FeCl3:6H2O      -14.37    -11.49    2.88  FeCl3:6H2O
	Fix_pH           -7.90     -7.90    0.00  H+
	H2O(g)           -1.51     -0.00    1.51  H2O
	O2(g)            -0.10     -3.00   -2.90  O2


Reaction step 2.

Using solution 2.	Solution after simulation 2.
Using reaction 1.	

Reaction 1.	

	  2.000e-03 moles of the following reaction have been added:

	                 Relative
	Reactant            moles

	O2                   1.00000

	                 Relative
	Element             moles
	O                    2.00000

-----------------------------Solution composition------------------------------

	Elements           Molality       Moles

	Cl                2.500e-03   2.500e-03
	Fe                1.000e-03   1.000e-03

----------------------------Description of solution----------------------------

                                       pH  =   7.973      Charge balance
                                       pe  =  12.851      Adjusted to redox equilibrium
                        Activity of water  =   1.000
                           Ionic strength  =   4.503e-03
                       Mass of water (kg)  =   1.000e+00
                 Total alkalinity (eq/kg)  =  -1.001e-03
                    Total carbon (mol/kg)  =   0.000e+00
                       Total CO2 (mol/kg)  =   0.000e+00
                      Temperature (deg C)  =  25.00
                  Electrical balance (eq)  =  -4.619e-10
 Percent error, 100*(Cat-|An|)/(Cat+|An|)  =  -0.00
                               Iterations  =  20
                         Gamma iterations  =   2
                      Osmotic coefficient  =   0.96190
                                  Total H  = 1.110124e+02
                                  Total O  = 5.551022e+01

----------------------------Distribution of species----------------------------

                                                    MacInnes  MacInnes
                                MacInnes       Log       Log       Log    mole V
   Species          Molality    Activity  Molality  Activity     Gamma   cm3/mol

   OH-             1.021e-06   9.442e-07    -5.991    -6.025    -0.034     (0)  
   H+              1.153e-08   1.064e-08    -7.938    -7.973    -0.035      0.00
   H2O             5.551e+01   9.999e-01     1.744    -0.000     0.000     18.07
Cl            2.500e-03
   Cl-             2.500e-03   2.324e-03    -2.602    -2.634    -0.032     (0)  
Fe(2)         4.990e-04
   Fe+2            4.990e-04   3.736e-04    -3.302    -3.428    -0.126     (0)  
Fe(3)         5.010e-04
   Fe+3            5.010e-04   2.597e-04    -3.300    -3.586    -0.285     (0)  
H(0)          0.000e+00
   H2              0.000e+00   0.000e+00   -44.749   -44.749     0.000     (0)  
O(0)          3.999e-03
   O2              2.000e-03   2.000e-03    -2.699    -2.699     0.000     (0)  

------------------------------Saturation indices-------------------------------

	Phase               SI   log IAP   log K(298 K,   1 atm)

	FeCl2:4H2O      -11.73     -8.70    3.03  FeCl2:4H2O
	FeCl3:6H2O      -14.37    -11.49    2.88  FeCl3:6H2O
	Fix_pH           -7.97     -7.97    0.00  H+
	H2O(g)           -1.51     -0.00    1.51  H2O
	O2(g)             0.20     -2.70   -2.90  O2


------------------
End of simulation.
------------------

------------------------------------
Reading input data for simulation 4.
------------------------------------

------------------------------
End of Run after 0.02 Seconds.
------------------------------

