WARNING: Database file from DATABASE keyword is used; command line argument ignored.
   Input file: lk_phase
  Output file: lk_phase.out
Database file: ../database/phreeqc.dat

------------------
Reading data base.
------------------

	SOLUTION_MASTER_SPECIES
	SOLUTION_SPECIES
	PHASES
	EXCHANGE_MASTER_SPECIES
	EXCHANGE_SPECIES
	SURFACE_MASTER_SPECIES
	SURFACE_SPECIES
	RATES
	END
------------------------------------
Reading input data for simulation 1.
------------------------------------

	database ../database/phreeqc.dat
	SELECTED_OUTPUT 101
	    file                 lk_phase_101.sel
	USER_PUNCH 101
	    headings Mu SC
	    start
	10 PUNCH STR_F$(MU, 20, 12)
	20 PUNCH STR_F$(SC, 20, 10)
	    end
	TITLE Solubility calcite
	SOLUTION
	REACTION_TEMPERATURE
	0 25 60 100 150 200
	EQUILIBRIUM_PHASES
	calcite
	USER_GRAPH 1
	-headings legend P_sat
	-axis_scale x_axis 0 200
	-connect_simulation false
	-start
	10 GRAPH_X TC
	20 GRAPH_Y LK_PHASE("Calcite")
	-end
	END
-----
TITLE
-----

 Solubility calcite

-------------------------------------------
Beginning of initial solution calculations.
-------------------------------------------

Initial solution 1.	

-----------------------------Solution composition------------------------------

	Elements           Molality       Moles

	Pure water     

----------------------------Description of solution----------------------------

                                       pH  =   7.000    
                                       pe  =   4.000    
      Specific Conductance (µS/cm,  25°C)  = 0
                          Density (g/cm³)  =   0.99704
                               Volume (L)  =   1.00297
                        Activity of water  =   1.000
                 Ionic strength (mol/kgw)  =   1.007e-07
                       Mass of water (kg)  =   1.000e+00
                 Total alkalinity (eq/kg)  =   1.217e-09
                         Temperature (°C)  =  25.00
                  Electrical balance (eq)  =  -1.217e-09
 Percent error, 100*(Cat-|An|)/(Cat+|An|)  =  -0.60
                               Iterations  =   0
                                  Total H  = 1.110124e+02
                                  Total O  = 5.550622e+01

----------------------------Distribution of species----------------------------

                                               Log       Log       Log    mole V
   Species          Molality    Activity  Molality  Activity     Gamma   cm³/mol

   OH-             1.013e-07   1.012e-07    -6.995    -6.995    -0.000     -4.14
   H+              1.001e-07   1.000e-07    -7.000    -7.000    -0.000      0.00
   H2O             5.551e+01   1.000e+00     1.744     0.000     0.000     18.07
H(0)          1.416e-25
   H2              7.079e-26   7.079e-26   -25.150   -25.150     0.000     28.61
O(0)          0.000e+00
   O2              0.000e+00   0.000e+00   -42.080   -42.080     0.000     30.40

------------------------------Saturation indices-------------------------------

  Phase               SI** log IAP   log K(298 K,   1 atm)

  H2(g)           -22.05    -25.15   -3.10  H2
  H2O(g)           -1.50      0.00    1.50  H2O
  O2(g)           -39.19    -42.08   -2.89  O2

**For a gas, SI = log10(fugacity). Fugacity = pressure * phi / 1 atm.
  For ideal gases, phi = 1.

-----------------------------------------
Beginning of batch-reaction calculations.
-----------------------------------------

Reaction step 1.

Using solution 1.	
Using pure phase assemblage 1.	
Using temperature 1.	

-------------------------------Phase assemblage--------------------------------

                                                      Moles in assemblage
Phase               SI  log IAP  log K(T, P)   Initial       Final       Delta

Calcite           0.00    -8.38     -8.38    1.000e+01   1.000e+01  -1.043e-04

-----------------------------Solution composition------------------------------

	Elements           Molality       Moles

	C                 1.043e-04   1.043e-04
	Ca                1.043e-04   1.043e-04

----------------------------Description of solution----------------------------

                                       pH  =  10.612      Charge balance
                                       pe  =   9.342      Adjusted to redox equilibrium
      Specific Conductance (µS/cm,   0°C)  = 15
                          Density (g/cm³)  =   0.99985
                               Volume (L)  =   1.00016
                        Activity of water  =   1.000
                 Ionic strength (mol/kgw)  =   3.445e-04
                       Mass of water (kg)  =   1.000e+00
                 Total alkalinity (eq/kg)  =   2.087e-04
                       Total CO2 (mol/kg)  =   1.043e-04
                         Temperature (°C)  =   0.00
                  Electrical balance (eq)  =  -1.216e-09
 Percent error, 100*(Cat-|An|)/(Cat+|An|)  =  -0.00
                               Iterations  =  19
                                  Total H  = 1.110124e+02
                                  Total O  = 5.550653e+01

----------------------------Distribution of species----------------------------

                                               Log       Log       Log    mole V
   Species          Molality    Activity  Molality  Activity     Gamma   cm³/mol

   OH-             4.815e-05   4.717e-05    -4.317    -4.326    -0.009     -6.18
   H+              2.492e-11   2.442e-11   -10.604   -10.612    -0.009      0.00
   H2O             5.551e+01   1.000e+00     1.744    -0.000     0.000     18.02
C(-4)         0.000e+00
   CH4             0.000e+00   0.000e+00  -140.032  -140.032     0.000     32.63
C(4)          1.043e-04
   CO3-2           4.988e-05   4.599e-05    -4.302    -4.337    -0.035    -10.35
   HCO3-           4.874e-05   4.776e-05    -4.312    -4.321    -0.009     21.37
   CaCO3           5.675e-06   5.675e-06    -5.246    -5.246     0.000    -14.71
   CaHCO3+         2.910e-08   2.851e-08    -7.536    -7.545    -0.009      8.12
   CO2             4.420e-09   4.420e-09    -8.355    -8.355     0.000     33.05
   (CO2)2          1.380e-19   1.380e-19   -18.860   -18.860     0.000     66.09
Ca            1.043e-04
   Ca+2            9.800e-05   9.035e-05    -4.009    -4.044    -0.035    -18.92
   CaCO3           5.675e-06   5.675e-06    -5.246    -5.246     0.000    -14.71
   CaOH+           6.266e-07   6.139e-07    -6.203    -6.212    -0.009     (0)  
   CaHCO3+         2.910e-08   2.851e-08    -7.536    -7.545    -0.009      8.12
H(0)          0.000e+00
   H2              0.000e+00   0.000e+00   -42.941   -42.941     0.000     28.65
O(0)          9.925e-16
   O2              4.963e-16   4.963e-16   -15.304   -15.304     0.000     27.49

------------------------------Saturation indices-------------------------------

  Phase               SI** log IAP   log K(273 K,   1 atm)

  Aragonite        -0.16     -8.38   -8.22  CaCO3
  Calcite           0.00     -8.38   -8.38  CaCO3
  CH4(g)         -137.56   -140.03   -2.47  CH4
  CO2(g)           -7.25     -8.35   -1.11  CO2
  H2(g)           -39.93    -42.94   -3.01  H2
  H2O(g)           -2.21     -0.00    2.21  H2O
  O2(g)           -12.65    -15.30   -2.66  O2

**For a gas, SI = log10(fugacity). Fugacity = pressure * phi / 1 atm.
  For ideal gases, phi = 1.

Reaction step 2.

Using solution 1.	
Using pure phase assemblage 1.	
Using temperature 1.	

-------------------------------Phase assemblage--------------------------------

                                                      Moles in assemblage
Phase               SI  log IAP  log K(T, P)   Initial       Final       Delta

Calcite           0.00    -8.48     -8.48    1.000e+01   1.000e+01  -1.230e-04

-----------------------------Solution composition------------------------------

	Elements           Molality       Moles

	C                 1.230e-04   1.230e-04
	Ca                1.230e-04   1.230e-04

----------------------------Description of solution----------------------------

                                       pH  =   9.907      Charge balance
                                       pe  =   7.787      Adjusted to redox equilibrium
      Specific Conductance (µS/cm,  25°C)  = 38
                          Density (g/cm³)  =   0.99706
                               Volume (L)  =   1.00296
                        Activity of water  =   1.000
                 Ionic strength (mol/kgw)  =   3.856e-04
                       Mass of water (kg)  =   1.000e+00
                 Total alkalinity (eq/kg)  =   2.460e-04
                       Total CO2 (mol/kg)  =   1.230e-04
                         Temperature (°C)  =  25.00
                  Electrical balance (eq)  =  -1.217e-09
 Percent error, 100*(Cat-|An|)/(Cat+|An|)  =  -0.00
                               Iterations  =  17
                                  Total H  = 1.110124e+02
                                  Total O  = 5.550659e+01

----------------------------Distribution of species----------------------------

                                               Log       Log       Log    mole V
   Species          Molality    Activity  Molality  Activity     Gamma   cm³/mol

   OH-             8.353e-05   8.167e-05    -4.078    -4.088    -0.010     -4.12
   H+              1.267e-10   1.239e-10    -9.897    -9.907    -0.009      0.00
   H2O             5.551e+01   1.000e+00     1.744    -0.000     0.000     18.07
C(-4)         0.000e+00
   CH4             0.000e+00   0.000e+00  -124.804  -124.804     0.000     35.46
C(4)          1.230e-04
   HCO3-           8.352e-05   8.168e-05    -4.078    -4.088    -0.010     24.67
   CO3-2           3.379e-05   3.091e-05    -4.471    -4.510    -0.039     -5.32
   CaCO3           5.564e-06   5.565e-06    -5.255    -5.255     0.000    -14.60
   CaHCO3+         1.142e-07   1.117e-07    -6.942    -6.952    -0.010      9.66
   CO2             2.276e-08   2.276e-08    -7.643    -7.643     0.000     34.43
   (CO2)2          9.507e-18   9.508e-18   -17.022   -17.022     0.000     68.87
Ca            1.230e-04
   Ca+2            1.172e-04   1.072e-04    -3.931    -3.970    -0.039    -18.18
   CaCO3           5.564e-06   5.565e-06    -5.255    -5.255     0.000    -14.60
   CaOH+           1.468e-07   1.435e-07    -6.833    -6.843    -0.010     (0)  
   CaHCO3+         1.142e-07   1.117e-07    -6.942    -6.952    -0.010      9.66
H(0)          5.796e-39
   H2              2.898e-39   2.898e-39   -38.538   -38.538     0.000     28.61
O(0)          9.925e-16
   O2              4.962e-16   4.963e-16   -15.304   -15.304     0.000     30.40

------------------------------Saturation indices-------------------------------

  Phase               SI** log IAP   log K(298 K,   1 atm)

  Aragonite        -0.14     -8.48   -8.34  CaCO3
  Calcite           0.00     -8.48   -8.48  CaCO3
  CH4(g)         -122.00   -124.80   -2.80  CH4
  CO2(g)           -6.17     -7.64   -1.47  CO2
  H2(g)           -35.44    -38.54   -3.10  H2
  H2O(g)           -1.50     -0.00    1.50  H2O
  O2(g)           -12.41    -15.30   -2.89  O2

**For a gas, SI = log10(fugacity). Fugacity = pressure * phi / 1 atm.
  For ideal gases, phi = 1.

Reaction step 3.

Using solution 1.	
Using pure phase assemblage 1.	
Using temperature 1.	

-------------------------------Phase assemblage--------------------------------

                                                      Moles in assemblage
Phase               SI  log IAP  log K(T, P)   Initial       Final       Delta

Calcite           0.00    -8.76     -8.76    1.000e+01   1.000e+01  -1.577e-04

-----------------------------Solution composition------------------------------

	Elements           Molality       Moles

	C                 1.577e-04   1.577e-04
	Ca                1.577e-04   1.577e-04

----------------------------Description of solution----------------------------

                                       pH  =   9.136      Charge balance
                                       pe  =   5.963      Adjusted to redox equilibrium
      Specific Conductance (µS/cm,  60°C)  = 87
                          Density (g/cm³)  =   0.98321
                               Volume (L)  =   1.01710
                        Activity of water  =   1.000
                 Ionic strength (mol/kgw)  =   4.633e-04
                       Mass of water (kg)  =   1.000e+00
                 Total alkalinity (eq/kg)  =   3.153e-04
                       Total CO2 (mol/kg)  =   1.577e-04
                         Temperature (°C)  =  60.00
                  Electrical balance (eq)  =  -1.217e-09
 Percent error, 100*(Cat-|An|)/(Cat+|An|)  =  -0.00
                               Iterations  =  15
                                  Total H  = 1.110124e+02
                                  Total O  = 5.550669e+01

----------------------------Distribution of species----------------------------

                                               Log       Log       Log    mole V
   Species          Molality    Activity  Molality  Activity     Gamma   cm³/mol

   OH-             1.357e-04   1.322e-04    -3.867    -3.879    -0.011     -3.97
   H+              7.493e-10   7.305e-10    -9.125    -9.136    -0.011      0.00
   H2O             5.551e+01   1.000e+00     1.744    -0.000     0.000     18.32
C(-4)         0.000e+00
   CH4             0.000e+00   0.000e+00  -107.583  -107.583     0.000     38.02
C(4)          1.577e-04
   HCO3-           1.350e-04   1.316e-04    -3.870    -3.881    -0.011     25.76
   CO3-2           1.435e-05   1.293e-05    -4.843    -4.888    -0.045     -6.22
   CaCO3           7.788e-06   7.788e-06    -5.109    -5.109     0.000    -14.51
   CaHCO3+         3.083e-07   3.004e-07    -6.511    -6.522    -0.011     10.41
   CO2             1.875e-07   1.875e-07    -6.727    -6.727     0.000     36.19
   (CO2)2          1.664e-15   1.664e-15   -14.779   -14.779     0.000     72.38
Ca            1.577e-04
   Ca+2            1.495e-04   1.347e-04    -3.825    -3.871    -0.045    -18.43
   CaCO3           7.788e-06   7.788e-06    -5.109    -5.109     0.000    -14.51
   CaHCO3+         3.083e-07   3.004e-07    -6.511    -6.522    -0.011     10.41
   CaOH+           3.142e-08   3.061e-08    -7.503    -7.514    -0.011     (0)  
H(0)          6.568e-34
   H2              3.284e-34   3.284e-34   -33.484   -33.484     0.000     28.58
O(0)          9.926e-16
   O2              4.963e-16   4.964e-16   -15.304   -15.304     0.000     32.38

------------------------------Saturation indices-------------------------------

  Phase               SI** log IAP   log K(333 K,   1 atm)

  Aragonite        -0.12     -8.76   -8.64  CaCO3
  Calcite           0.00     -8.76   -8.76  CaCO3
  CH4(g)         -104.59   -107.58   -2.99  CH4
  CO2(g)           -4.94     -6.73   -1.78  CO2
  H2(g)           -30.34    -33.48   -3.14  H2
  H2O(g)           -0.71     -0.00    0.71  H2O
  O2(g)           -12.24    -15.30   -3.06  O2

**For a gas, SI = log10(fugacity). Fugacity = pressure * phi / 1 atm.
  For ideal gases, phi = 1.

Reaction step 4.

Using solution 1.	
Using pure phase assemblage 1.	
Using temperature 1.	

-------------------------------Phase assemblage--------------------------------

                                                      Moles in assemblage
Phase               SI  log IAP  log K(T, P)   Initial       Final       Delta

Calcite           0.00    -9.27     -9.27    1.000e+01   1.000e+01  -1.862e-04

-----------------------------Solution composition------------------------------

	Elements           Molality       Moles

	C                 1.862e-04   1.862e-04
	Ca                1.862e-04   1.862e-04

----------------------------Description of solution----------------------------

                                       pH  =   8.470      Charge balance
                                       pe  =   4.260      Adjusted to redox equilibrium
      Specific Conductance (µS/cm, 100°C)  = 158
                          Density (g/cm³)  =   0.95837
                               Volume (L)  =   1.04346
                        Activity of water  =   1.000
                 Ionic strength (mol/kgw)  =   5.374e-04
                       Mass of water (kg)  =   1.000e+00
                 Total alkalinity (eq/kg)  =   3.725e-04
                       Total CO2 (mol/kg)  =   1.862e-04
                         Temperature (°C)  = 100.00
                  Electrical balance (eq)  =  -1.217e-09
 Percent error, 100*(Cat-|An|)/(Cat+|An|)  =  -0.00
                               Iterations  =  14
                                  Total H  = 1.110124e+02
                                  Total O  = 5.550678e+01

----------------------------Distribution of species----------------------------

                                               Log       Log       Log    mole V
   Species          Molality    Activity  Molality  Activity     Gamma   cm³/mol

   OH-             1.758e-04   1.705e-04    -3.755    -3.768    -0.014     -5.91
   H+              3.492e-09   3.389e-09    -8.457    -8.470    -0.013      0.00
   H2O             5.551e+01   1.000e+00     1.744    -0.000     0.000     18.80
C(-4)         0.000e+00
   CH4             0.000e+00   0.000e+00   -92.160   -92.160     0.000     41.06
C(4)          1.862e-04
   HCO3-           1.722e-04   1.670e-04    -3.764    -3.777    -0.013     24.69
   CaCO3           7.995e-06   7.996e-06    -5.097    -5.097     0.000    -14.43
   CO3-2           3.897e-06   3.447e-06    -5.409    -5.463    -0.053    -14.07
   CO2             1.511e-06   1.512e-06    -5.821    -5.821     0.000     38.89
   CaHCO3+         6.136e-07   5.951e-07    -6.212    -6.225    -0.013     10.51
   (CO2)2          2.120e-13   2.121e-13   -12.674   -12.674     0.000     77.78
Ca            1.862e-04
   Ca+2            1.776e-04   1.571e-04    -3.751    -3.804    -0.053    -19.85
   CaCO3           7.995e-06   7.996e-06    -5.097    -5.097     0.000    -14.43
   CaHCO3+         6.136e-07   5.951e-07    -6.212    -6.225    -0.013     10.51
   CaOH+           7.933e-09   7.691e-09    -8.101    -8.114    -0.013     (0)  
H(0)          2.709e-29
   H2              1.355e-29   1.355e-29   -28.868   -28.868     0.000     28.57
O(0)          9.924e-16
   O2              4.962e-16   4.963e-16   -15.304   -15.304     0.000     33.90

------------------------------Saturation indices-------------------------------

  Phase               SI** log IAP   log K(373 K,   1 atm)

  Aragonite        -0.10     -9.27   -9.17  CaCO3
  Calcite           0.00     -9.27   -9.27  CaCO3
  CH4(g)          -89.16    -92.16   -3.00  CH4
  CO2(g)           -3.84     -5.82   -1.98  CO2
  H2(g)           -25.77    -28.87   -3.10  H2
  H2O(g)           -0.01     -0.00    0.00  H2O
  O2(g)           -12.19    -15.30   -3.11  O2

**For a gas, SI = log10(fugacity). Fugacity = pressure * phi / 1 atm.
  For ideal gases, phi = 1.

Reaction step 5.

Using solution 1.	
Using pure phase assemblage 1.	
Using temperature 1.	

-------------------------------Phase assemblage--------------------------------

                                                      Moles in assemblage
Phase               SI  log IAP  log K(T, P)   Initial       Final       Delta

Calcite           0.00   -10.15    -10.15    1.000e+01   1.000e+01  -1.748e-04

-----------------------------Solution composition------------------------------

	Elements           Molality       Moles

	C                 1.748e-04   1.748e-04
	Ca                1.748e-04   1.748e-04

----------------------------Description of solution----------------------------

                                       pH  =   7.876      Charge balance
                                       pe  =   2.532      Adjusted to redox equilibrium
      Specific Conductance (µS/cm, 150°C)  = 218
                          Density (g/cm³)  =   0.91703
                               Volume (L)  =   1.09050
                        Activity of water  =   1.000
                 Ionic strength (mol/kgw)  =   5.151e-04
                       Mass of water (kg)  =   1.000e+00
                 Total alkalinity (eq/kg)  =   3.496e-04
                       Total CO2 (mol/kg)  =   1.748e-04
                         Temperature (°C)  = 150.00
                           Pressure (atm)  =  4.70
                  Electrical balance (eq)  =  -1.216e-09
 Percent error, 100*(Cat-|An|)/(Cat+|An|)  =  -0.00
                               Iterations  =  12
                                  Total H  = 1.110124e+02
                                  Total O  = 5.550674e+01

----------------------------Distribution of species----------------------------

                                               Log       Log       Log    mole V
   Species          Molality    Activity  Molality  Activity     Gamma   cm³/mol

   OH-             1.841e-04   1.777e-04    -3.735    -3.750    -0.015    -12.03
   H+              1.376e-08   1.331e-08    -7.861    -7.876    -0.015      0.00
   H2O             5.551e+01   1.000e+00     1.744    -0.000     0.000     19.65
C(-4)         0.000e+00
   CH4             0.000e+00   0.000e+00   -77.493   -77.493     0.000     46.91
C(4)          1.748e-04
   HCO3-           1.585e-04   1.531e-04    -3.800    -3.815    -0.015     20.05
   CO2             1.192e-05   1.192e-05    -4.924    -4.924     0.000     44.77
   CaCO3           2.137e-06   2.137e-06    -5.670    -5.670     0.000    -14.28
   CaHCO3+         1.725e-06   1.666e-06    -5.763    -5.778    -0.015      9.82
   CO3-2           5.450e-07   4.747e-07    -6.264    -6.324    -0.060    -36.61
   (CO2)2          1.990e-11   1.991e-11   -10.701   -10.701     0.000     89.53
Ca            1.748e-04
   Ca+2            1.709e-04   1.488e-04    -3.767    -3.827    -0.060    -23.83
   CaCO3           2.137e-06   2.137e-06    -5.670    -5.670     0.000    -14.28
   CaHCO3+         1.725e-06   1.666e-06    -5.763    -5.778    -0.015      9.82
   CaOH+           1.921e-09   1.855e-09    -8.716    -8.732    -0.015     (0)  
H(0)          8.961e-25
   H2              4.481e-25   4.481e-25   -24.349   -24.349     0.000     28.56
O(0)          1.095e-15
   O2              5.476e-16   5.477e-16   -15.262   -15.261     0.000     35.91

------------------------------Saturation indices-------------------------------

  Phase               SI** log IAP   log K(423 K,   5 atm)

  Aragonite        -0.08    -10.15  -10.07  CaCO3
  Calcite           0.00    -10.15  -10.15  CaCO3
  CH4(g)          -74.60    -77.49   -2.90  CH4
  CO2(g)           -2.85     -4.92   -2.07  CO2
  H2(g)           -21.37    -24.35   -2.98  H2
  H2O(g)            0.66     -0.00   -0.66  H2O
  O2(g)           -12.22    -15.26   -3.04  O2

**For a gas, SI = log10(fugacity). Fugacity = pressure * phi / 1 atm.
  For ideal gases, phi = 1.

Reaction step 6.

Using solution 1.	
Using pure phase assemblage 1.	
Using temperature 1.	

-------------------------------Phase assemblage--------------------------------

                                                      Moles in assemblage
Phase               SI  log IAP  log K(T, P)   Initial       Final       Delta

Calcite           0.00   -11.27    -11.27    1.000e+01   1.000e+01  -1.352e-04

-----------------------------Solution composition------------------------------

	Elements           Molality       Moles

	C                 1.352e-04   1.352e-04
	Ca                1.352e-04   1.352e-04

----------------------------Description of solution----------------------------

                                       pH  =   7.539      Charge balance
                                       pe  =   2.621      Adjusted to redox equilibrium
      Specific Conductance (µS/cm, 200°C)  = 221
                          Density (g/cm³)  =   0.86469
                               Volume (L)  =   1.15650
                        Activity of water  =   1.000
                 Ionic strength (mol/kgw)  =   3.880e-04
                       Mass of water (kg)  =   1.000e+00
                 Total alkalinity (eq/kg)  =   2.705e-04
                       Total CO2 (mol/kg)  =   1.352e-04
                         Temperature (°C)  = 200.00
                           Pressure (atm)  = 15.38
                  Electrical balance (eq)  =  -1.217e-09
 Percent error, 100*(Cat-|An|)/(Cat+|An|)  =  -0.00
                               Iterations  =  13
                                  Total H  = 1.110124e+02
                                  Total O  = 5.550662e+01

----------------------------Distribution of species----------------------------

                                               Log       Log       Log    mole V
   Species          Molality    Activity  Molality  Activity     Gamma   cm³/mol

   OH-             1.752e-04   1.690e-04    -3.757    -3.772    -0.016    -26.17
   H+              2.990e-08   2.888e-08    -7.524    -7.539    -0.015      0.00
   H2O             5.551e+01   1.000e+00     1.744    -0.000     0.000     20.84
C(-4)         0.000e+00
   CH4             0.000e+00   0.000e+00   -79.181   -79.181     0.000     58.68
C(4)          1.352e-04
   HCO3-           8.630e-05   8.330e-05    -4.064    -4.079    -0.015      8.71
   CO2             4.005e-05   4.005e-05    -4.397    -4.397     0.000     57.09
   CaHCO3+         8.743e-06   8.440e-06    -5.058    -5.074    -0.015      7.75
   CaCO3           8.380e-08   8.381e-08    -7.077    -7.077     0.000    -13.98
   CO3-2           5.692e-08   4.940e-08    -7.245    -7.306    -0.062    -87.67
   (CO2)2          2.416e-10   2.417e-10    -9.617    -9.617     0.000    114.18
Ca            1.352e-04
   Ca+2            1.264e-04   1.097e-04    -3.898    -3.960    -0.062    -32.84
   CaHCO3+         8.743e-06   8.440e-06    -5.058    -5.074    -0.015      7.75
   CaCO3           8.380e-08   8.381e-08    -7.077    -7.077     0.000    -13.98
   CaOH+           6.503e-10   6.274e-10    -9.187    -9.202    -0.016     (0)  
H(0)          2.229e-24
   H2              1.114e-24   1.114e-24   -23.953   -23.953     0.000     28.55
O(0)          2.548e-09
   O2              1.274e-09   1.274e-09    -8.895    -8.895     0.000     39.26

------------------------------Saturation indices-------------------------------

  Phase               SI** log IAP   log K(473 K,  15 atm)

  Aragonite        -0.06    -11.27  -11.20  CaCO3
  Calcite           0.00    -11.27  -11.27  CaCO3
  CH4(g)          -76.43    -79.18   -2.75  CH4
  CO2(g)           -2.33     -4.40   -2.06  CO2
  H2(g)           -21.14    -23.95   -2.81  H2
  H2O(g)            1.16     -0.00   -1.16  H2O
  O2(g)            -6.02     -8.89   -2.87  O2

**For a gas, SI = log10(fugacity). Fugacity = pressure * phi / 1 atm.
  For ideal gases, phi = 1.

------------------
End of simulation.
------------------

------------------------------------
Reading input data for simulation 2.
------------------------------------

	SOLUTION 2
	user_print
	10 PRINT LK_PHASE("Calcite")
	15 PRINT LA("Ca+2") + LA("CO3-2") - SI("Calcite")
	20 PRINT LK_SPECIES("HCO3-")
	30 PRINT LA("HCO3-") - LA("H+") - LA("CO3-2") 
	USE REACTION_TEMPERATURE
WARNING: No number given, 1 assumed.
	REACTION_PRESSURE
	500
	EQUILIBRIUM_PHASES
	calcite
	USER_GRAPH 1
	-headings legend 500_atm
	END
-------------------------------------------
Beginning of initial solution calculations.
-------------------------------------------

Initial solution 2.	

----------------------------------User print-----------------------------------

 -8.4798e+00 
 -9.9990e+01 
  1.0329e+01 
  6.9999e+00 

-----------------------------Solution composition------------------------------

	Elements           Molality       Moles

	Pure water     

----------------------------Description of solution----------------------------

                                       pH  =   7.000    
                                       pe  =   4.000    
      Specific Conductance (µS/cm,  25°C)  = 0
                          Density (g/cm³)  =   0.99704
                               Volume (L)  =   1.00297
                        Activity of water  =   1.000
                 Ionic strength (mol/kgw)  =   1.007e-07
                       Mass of water (kg)  =   1.000e+00
                 Total alkalinity (eq/kg)  =   1.217e-09
                         Temperature (°C)  =  25.00
                  Electrical balance (eq)  =  -1.217e-09
 Percent error, 100*(Cat-|An|)/(Cat+|An|)  =  -0.60
                               Iterations  =   0
                                  Total H  = 1.110124e+02
                                  Total O  = 5.550622e+01

----------------------------Distribution of species----------------------------

                                               Log       Log       Log    mole V
   Species          Molality    Activity  Molality  Activity     Gamma   cm³/mol

   OH-             1.013e-07   1.012e-07    -6.995    -6.995    -0.000     -4.14
   H+              1.001e-07   1.000e-07    -7.000    -7.000    -0.000      0.00
   H2O             5.551e+01   1.000e+00     1.744     0.000     0.000     18.07
H(0)          1.416e-25
   H2              7.079e-26   7.079e-26   -25.150   -25.150     0.000     28.61
O(0)          0.000e+00
   O2              0.000e+00   0.000e+00   -42.080   -42.080     0.000     30.40

------------------------------Saturation indices-------------------------------

  Phase               SI** log IAP   log K(298 K,   1 atm)

  H2(g)           -22.05    -25.15   -3.10  H2
  H2O(g)           -1.50      0.00    1.50  H2O
  O2(g)           -39.19    -42.08   -2.89  O2

**For a gas, SI = log10(fugacity). Fugacity = pressure * phi / 1 atm.
  For ideal gases, phi = 1.

-----------------------------------------
Beginning of batch-reaction calculations.
-----------------------------------------

Reaction step 1.

Using solution 2.	
Using pure phase assemblage 1.	
Using temperature 1.	
Using pressure 1.	

----------------------------------User print-----------------------------------

 -7.8233e+00 
 -7.8233e+00 
  1.0365e+01 
  1.0365e+01 

-------------------------------Phase assemblage--------------------------------

                                                      Moles in assemblage
Phase               SI  log IAP  log K(T, P)   Initial       Final       Delta

Calcite           0.00    -7.82     -7.82    1.000e+01   1.000e+01  -1.890e-04

-----------------------------Solution composition------------------------------

	Elements           Molality       Moles

	C                 1.890e-04   1.890e-04
	Ca                1.890e-04   1.890e-04

----------------------------Description of solution----------------------------

                                       pH  =  10.558      Charge balance
                                       pe  =   9.378      Adjusted to redox equilibrium
      Specific Conductance (µS/cm,   0°C)  = 27
                          Density (g/cm³)  =   1.02415
                               Volume (L)  =   0.97643
                        Activity of water  =   1.000
                 Ionic strength (mol/kgw)  =   6.237e-04
                       Mass of water (kg)  =   1.000e+00
                 Total alkalinity (eq/kg)  =   3.780e-04
                       Total CO2 (mol/kg)  =   1.890e-04
                         Temperature (°C)  =   0.00
                           Pressure (atm)  = 500.00
                  Electrical balance (eq)  =  -1.217e-09
 Percent error, 100*(Cat-|An|)/(Cat+|An|)  =  -0.00
                               Iterations  =  20
                                  Total H  = 1.110124e+02
                                  Total O  = 5.550678e+01

----------------------------Distribution of species----------------------------

                                               Log       Log       Log    mole V
   Species          Molality    Activity  Molality  Activity     Gamma   cm³/mol

   OH-             6.321e-05   6.154e-05    -4.199    -4.211    -0.012      0.06
   H+              2.838e-11   2.766e-11   -10.547   -10.558    -0.011      0.00
   H2O             5.551e+01   1.000e+00     1.744    -0.000     0.000     17.59
C(-4)         0.000e+00
   CH4             0.000e+00   0.000e+00  -140.339  -140.339     0.000     33.66
C(4)          1.890e-04
   CO3-2           1.083e-04   9.741e-05    -3.965    -4.011    -0.046     -5.53
   HCO3-           6.414e-05   6.247e-05    -4.193    -4.204    -0.011     21.72
   CaCO3           1.653e-05   1.653e-05    -4.782    -4.782     0.000    -11.11
   CaHCO3+         6.060e-08   5.903e-08    -7.217    -7.229    -0.011      9.80
   CO2             3.430e-09   3.430e-09    -8.465    -8.465     0.000     33.16
   (CO2)2          8.311e-20   8.312e-20   -19.080   -19.080     0.000     66.32
Ca            1.890e-04
   Ca+2            1.714e-04   1.542e-04    -3.766    -3.812    -0.046    -15.30
   CaCO3           1.653e-05   1.653e-05    -4.782    -4.782     0.000    -11.11
   CaOH+           1.000e-06   9.736e-07    -6.000    -6.012    -0.012     (0)  
   CaHCO3+         6.060e-08   5.903e-08    -7.217    -7.229    -0.011      9.80
H(0)          0.000e+00
   H2              0.000e+00   0.000e+00   -43.179   -43.179     0.000     28.44
O(0)          9.925e-16
   O2              4.963e-16   4.963e-16   -15.304   -15.304     0.000     27.50

------------------------------Saturation indices-------------------------------

  Phase               SI** log IAP   log K(273 K, 500 atm)

  Aragonite        -0.14     -7.82   -7.69  CaCO3
  Calcite           0.00     -7.82   -7.82  CaCO3
  CH4(g)         -137.54   -140.34   -2.80  CH4
  CO2(g)           -7.04     -8.46   -1.43  CO2
  H2(g)           -39.89    -43.18   -3.29  H2
  H2O(g)           -2.04     -0.00    2.04  H2O
  O2(g)           -12.38    -15.30   -2.92  O2

**For a gas, SI = log10(fugacity). Fugacity = pressure * phi / 1 atm.
  For ideal gases, phi = 1.

Reaction step 2.

Using solution 2.	
Using pure phase assemblage 1.	
Using temperature 1.	
Using pressure 1.	

----------------------------------User print-----------------------------------

 -8.0088e+00 
 -8.0088e+00 
  1.0095e+01 
  1.0095e+01 

-------------------------------Phase assemblage--------------------------------

                                                      Moles in assemblage
Phase               SI  log IAP  log K(T, P)   Initial       Final       Delta

Calcite           0.00    -8.01     -8.01    1.000e+01   1.000e+01  -1.940e-04

-----------------------------Solution composition------------------------------

	Elements           Molality       Moles

	C                 1.940e-04   1.940e-04
	Ca                1.940e-04   1.940e-04

----------------------------Description of solution----------------------------

                                       pH  =   9.849      Charge balance
                                       pe  =   7.833      Adjusted to redox equilibrium
      Specific Conductance (µS/cm,  25°C)  = 56
                          Density (g/cm³)  =   1.01875
                               Volume (L)  =   0.98161
                        Activity of water  =   1.000
                 Ionic strength (mol/kgw)  =   6.045e-04
                       Mass of water (kg)  =   1.000e+00
                 Total alkalinity (eq/kg)  =   3.881e-04
                       Total CO2 (mol/kg)  =   1.940e-04
                         Temperature (°C)  =  25.00
                           Pressure (atm)  = 500.00
                  Electrical balance (eq)  =  -1.217e-09
 Percent error, 100*(Cat-|An|)/(Cat+|An|)  =  -0.00
                               Iterations  =  18
                                  Total H  = 1.110124e+02
                                  Total O  = 5.550680e+01

----------------------------Distribution of species----------------------------

                                               Log       Log       Log    mole V
   Species          Molality    Activity  Molality  Activity     Gamma   cm³/mol

   OH-             1.108e-04   1.078e-04    -3.955    -3.967    -0.012     -2.50
   H+              1.455e-10   1.417e-10    -9.837    -9.849    -0.011      0.00
   H2O             5.551e+01   1.000e+00     1.744    -0.000     0.000     17.68
C(-4)         0.000e+00
   CH4             0.000e+00   0.000e+00  -125.093  -125.093     0.000     36.02
C(4)          1.940e-04
   HCO3-           1.108e-04   1.078e-04    -3.956    -3.967    -0.012     25.11
   CO3-2           6.809e-05   6.111e-05    -4.167    -4.214    -0.047     -1.27
   CaCO3           1.493e-05   1.494e-05    -4.826    -4.826     0.000    -11.51
   CaHCO3+         2.234e-07   2.175e-07    -6.651    -6.663    -0.012     10.78
   CO2             1.989e-08   1.989e-08    -7.701    -7.701     0.000     34.20
   (CO2)2          7.262e-18   7.263e-18   -17.139   -17.139     0.000     68.40
Ca            1.940e-04
   Ca+2            1.787e-04   1.603e-04    -3.748    -3.795    -0.047    -15.00
   CaCO3           1.493e-05   1.494e-05    -4.826    -4.826     0.000    -11.51
   CaHCO3+         2.234e-07   2.175e-07    -6.651    -6.663    -0.012     10.78
   CaOH+           2.038e-07   1.984e-07    -6.691    -6.703    -0.012     (0)  
H(0)          3.438e-39
   H2              1.719e-39   1.719e-39   -38.765   -38.765     0.000     28.40
O(0)          9.925e-16
   O2              4.963e-16   4.963e-16   -15.304   -15.304     0.000     29.76

------------------------------Saturation indices-------------------------------

  Phase               SI** log IAP   log K(298 K, 500 atm)

  Aragonite        -0.12     -8.01   -7.89  CaCO3
  Calcite           0.00     -8.01   -8.01  CaCO3
  CH4(g)         -121.97   -125.09   -3.12  CH4
  CO2(g)           -5.93     -7.70   -1.77  CO2
  H2(g)           -35.41    -38.76   -3.35  H2
  H2O(g)           -1.35     -0.00    1.35  H2O
  O2(g)           -12.15    -15.30   -3.16  O2

**For a gas, SI = log10(fugacity). Fugacity = pressure * phi / 1 atm.
  For ideal gases, phi = 1.

Reaction step 3.

Using solution 2.	
Using pure phase assemblage 1.	
Using temperature 1.	
Using pressure 1.	

----------------------------------User print-----------------------------------

 -8.3298e+00 
 -8.3298e+00 
  9.9196e+00 
  9.9196e+00 

-------------------------------Phase assemblage--------------------------------

                                                      Moles in assemblage
Phase               SI  log IAP  log K(T, P)   Initial       Final       Delta

Calcite           0.00    -8.33     -8.33    1.000e+01   1.000e+01  -2.284e-04

-----------------------------Solution composition------------------------------

	Elements           Molality       Moles

	C                 2.284e-04   2.284e-04
	Ca                2.284e-04   2.284e-04

----------------------------Description of solution----------------------------

                                       pH  =   9.079      Charge balance
                                       pe  =   6.011      Adjusted to redox equilibrium
      Specific Conductance (µS/cm,  60°C)  = 118
                          Density (g/cm³)  =   1.00404
                               Volume (L)  =   0.99600
                        Activity of water  =   1.000
                 Ionic strength (mol/kgw)  =   6.557e-04
                       Mass of water (kg)  =   1.000e+00
                 Total alkalinity (eq/kg)  =   4.568e-04
                       Total CO2 (mol/kg)  =   2.284e-04
                         Temperature (°C)  =  60.00
                           Pressure (atm)  = 500.00
                  Electrical balance (eq)  =  -1.216e-09
 Percent error, 100*(Cat-|An|)/(Cat+|An|)  =  -0.00
                               Iterations  =  15
                                  Total H  = 1.110124e+02
                                  Total O  = 5.550690e+01

----------------------------Distribution of species----------------------------

                                               Log       Log       Log    mole V
   Species          Molality    Activity  Molality  Activity     Gamma   cm³/mol

   OH-             1.812e-04   1.757e-04    -3.742    -3.755    -0.013     -4.91
   H+              8.583e-10   8.337e-10    -9.066    -9.079    -0.013      0.00
   H2O             5.551e+01   1.000e+00     1.744    -0.000     0.000     17.94
C(-4)         0.000e+00
   CH4             0.000e+00   0.000e+00  -107.848  -107.848     0.000     38.12
C(4)          2.284e-04
   HCO3-           1.803e-04   1.750e-04    -3.744    -3.757    -0.013     26.44
   CO3-2           2.847e-05   2.526e-05    -4.546    -4.598    -0.052     -1.85
   CaCO3           1.892e-05   1.892e-05    -4.723    -4.723     0.000    -11.73
   CaHCO3+         5.642e-07   5.476e-07    -6.249    -6.262    -0.013     11.24
   CO2             1.736e-07   1.737e-07    -6.760    -6.760     0.000     35.57
   (CO2)2          1.426e-15   1.427e-15   -14.846   -14.846     0.000     71.13
Ca            2.284e-04
   Ca+2            2.089e-04   1.853e-04    -3.680    -3.732    -0.052    -15.37
   CaCO3           1.892e-05   1.892e-05    -4.723    -4.723     0.000    -11.73
   CaHCO3+         5.642e-07   5.476e-07    -6.249    -6.262    -0.013     11.24
   CaOH+           3.984e-08   3.865e-08    -7.400    -7.413    -0.013     (0)  
H(0)          4.079e-34
   H2              2.040e-34   2.040e-34   -33.690   -33.690     0.000     28.38
O(0)          9.927e-16
   O2              4.963e-16   4.964e-16   -15.304   -15.304     0.000     31.30

------------------------------Saturation indices-------------------------------

  Phase               SI** log IAP   log K(333 K, 500 atm)

  Aragonite        -0.10     -8.33   -8.23  CaCO3
  Calcite           0.00     -8.33   -8.33  CaCO3
  CH4(g)         -104.56   -107.85   -3.29  CH4
  CO2(g)           -4.69     -6.76   -2.07  CO2
  H2(g)           -30.33    -33.69   -3.36  H2
  H2O(g)           -0.57     -0.00    0.57  H2O
  O2(g)           -11.99    -15.30   -3.31  O2

**For a gas, SI = log10(fugacity). Fugacity = pressure * phi / 1 atm.
  For ideal gases, phi = 1.

Reaction step 4.

Using solution 2.	
Using pure phase assemblage 1.	
Using temperature 1.	
Using pressure 1.	

----------------------------------User print-----------------------------------

 -8.8337e+00 
 -8.8337e+00 
  9.9172e+00 
  9.9172e+00 

-------------------------------Phase assemblage--------------------------------

                                                      Moles in assemblage
Phase               SI  log IAP  log K(T, P)   Initial       Final       Delta

Calcite           0.00    -8.83     -8.83    1.000e+01   1.000e+01  -2.601e-04

-----------------------------Solution composition------------------------------

	Elements           Molality       Moles

	C                 2.601e-04   2.601e-04
	Ca                2.601e-04   2.601e-04

----------------------------Description of solution----------------------------

                                       pH  =   8.411      Charge balance
                                       pe  =   4.311      Adjusted to redox equilibrium
      Specific Conductance (µS/cm, 100°C)  = 204
                          Density (g/cm³)  =   0.98063
                               Volume (L)  =   1.01978
                        Activity of water  =   1.000
                 Ionic strength (mol/kgw)  =   7.331e-04
                       Mass of water (kg)  =   1.000e+00
                 Total alkalinity (eq/kg)  =   5.202e-04
                       Total CO2 (mol/kg)  =   2.601e-04
                         Temperature (°C)  = 100.00
                           Pressure (atm)  = 500.00
                  Electrical balance (eq)  =  -1.217e-09
 Percent error, 100*(Cat-|An|)/(Cat+|An|)  =  -0.00
                               Iterations  =  14
                                  Total H  = 1.110124e+02
                                  Total O  = 5.550700e+01

----------------------------Distribution of species----------------------------

                                               Log       Log       Log    mole V
   Species          Molality    Activity  Molality  Activity     Gamma   cm³/mol

   OH-             2.358e-04   2.277e-04    -3.627    -3.643    -0.015     -7.77
   H+              4.017e-09   3.885e-09    -8.396    -8.411    -0.015      0.00
   H2O             5.551e+01   1.000e+00     1.744    -0.000     0.000     18.37
C(-4)         0.000e+00
   CH4             0.000e+00   0.000e+00   -92.406   -92.406     0.000     40.52
C(4)          2.601e-04
   HCO3-           2.319e-04   2.240e-04    -3.635    -3.650    -0.015     25.91
   CaCO3           1.769e-05   1.769e-05    -4.752    -4.752     0.000    -11.83
   CO3-2           8.009e-06   6.978e-06    -5.096    -5.156    -0.060     -7.72
   CO2             1.423e-06   1.423e-06    -5.847    -5.847     0.000     37.63
   CaHCO3+         1.072e-06   1.036e-06    -5.970    -5.985    -0.015     11.25
   (CO2)2          1.880e-13   1.881e-13   -12.726   -12.726     0.000     75.25
Ca            2.601e-04
   Ca+2            2.413e-04   2.102e-04    -3.617    -3.677    -0.060    -16.54
   CaCO3           1.769e-05   1.769e-05    -4.752    -4.752     0.000    -11.83
   CaHCO3+         1.072e-06   1.036e-06    -5.970    -5.985    -0.015     11.25
   CaOH+           9.580e-09   9.251e-09    -8.019    -8.034    -0.015     (0)  
H(0)          1.767e-29
   H2              8.833e-30   8.835e-30   -29.054   -29.054     0.000     28.36
O(0)          9.925e-16
   O2              4.963e-16   4.964e-16   -15.304   -15.304     0.000     32.48

------------------------------Saturation indices-------------------------------

  Phase               SI** log IAP   log K(373 K, 500 atm)

  Aragonite        -0.08     -8.83   -8.75  CaCO3
  Calcite           0.00     -8.83   -8.83  CaCO3
  CH4(g)          -89.12    -92.41   -3.29  CH4
  CO2(g)           -3.60     -5.85   -2.25  CO2
  H2(g)           -25.75    -29.05   -3.30  H2
  H2O(g)            0.13     -0.00   -0.13  H2O
  O2(g)           -11.96    -15.30   -3.34  O2

**For a gas, SI = log10(fugacity). Fugacity = pressure * phi / 1 atm.
  For ideal gases, phi = 1.

Reaction step 5.

Using solution 2.	
Using pure phase assemblage 1.	
Using temperature 1.	
Using pressure 1.	

----------------------------------User print-----------------------------------

 -9.6567e+00 
 -9.6567e+00 
  1.0097e+01 
  1.0097e+01 

-------------------------------Phase assemblage--------------------------------

                                                      Moles in assemblage
Phase               SI  log IAP  log K(T, P)   Initial       Final       Delta

Calcite           0.00    -9.66     -9.66    1.000e+01   1.000e+01  -2.425e-04

-----------------------------Solution composition------------------------------

	Elements           Molality       Moles

	C                 2.425e-04   2.425e-04
	Ca                2.425e-04   2.425e-04

----------------------------Description of solution----------------------------

                                       pH  =   7.805      Charge balance
                                       pe  =   2.586      Adjusted to redox equilibrium
      Specific Conductance (µS/cm, 150°C)  = 279
                          Density (g/cm³)  =   0.94311
                               Volume (L)  =   1.06035
                        Activity of water  =   1.000
                 Ionic strength (mol/kgw)  =   7.100e-04
                       Mass of water (kg)  =   1.000e+00
                 Total alkalinity (eq/kg)  =   4.850e-04
                       Total CO2 (mol/kg)  =   2.425e-04
                         Temperature (°C)  = 150.00
                           Pressure (atm)  = 500.00
                  Electrical balance (eq)  =  -1.216e-09
 Percent error, 100*(Cat-|An|)/(Cat+|An|)  =  -0.00
                               Iterations  =  13
                                  Total H  = 1.110124e+02
                                  Total O  = 5.550694e+01

----------------------------Distribution of species----------------------------

                                               Log       Log       Log    mole V
   Species          Molality    Activity  Molality  Activity     Gamma   cm³/mol

   OH-             2.483e-04   2.388e-04    -3.605    -3.622    -0.017    -12.99
   H+              1.625e-08   1.565e-08    -7.789    -7.805    -0.016      0.00
   H2O             5.551e+01   1.000e+00     1.744    -0.000     0.000     19.10
C(-4)         0.000e+00
   CH4             0.000e+00   0.000e+00   -77.635   -77.635     0.000     44.75
C(4)          2.425e-04
   HCO3-           2.226e-04   2.142e-04    -3.653    -3.669    -0.017     22.84
   CO2             1.140e-05   1.141e-05    -4.943    -4.943     0.000     41.82
   CaCO3           4.282e-06   4.283e-06    -5.368    -5.368     0.000    -11.84
   CaHCO3+         2.958e-06   2.847e-06    -5.529    -5.546    -0.017     10.73
   CO3-2           1.276e-06   1.094e-06    -5.894    -5.961    -0.067    -23.59
   (CO2)2          1.821e-11   1.821e-11   -10.740   -10.740     0.000     83.64
Ca            2.425e-04
   Ca+2            2.352e-04   2.016e-04    -3.628    -3.695    -0.067    -19.43
   CaCO3           4.282e-06   4.283e-06    -5.368    -5.368     0.000    -11.84
   CaHCO3+         2.958e-06   2.847e-06    -5.529    -5.546    -0.017     10.73
   CaOH+           2.212e-09   2.127e-09    -8.655    -8.672    -0.017     (0)  
H(0)          6.452e-25
   H2              3.226e-25   3.227e-25   -24.491   -24.491     0.000     28.36
O(0)          9.997e-16
   O2              4.998e-16   4.999e-16   -15.301   -15.301     0.000     33.96

------------------------------Saturation indices-------------------------------

  Phase               SI** log IAP   log K(423 K, 500 atm)

  Aragonite        -0.06     -9.66   -9.59  CaCO3
  Calcite           0.00     -9.66   -9.66  CaCO3
  CH4(g)          -74.46    -77.64   -3.17  CH4
  CO2(g)           -2.61     -4.94   -2.33  CO2
  H2(g)           -21.34    -24.49   -3.16  H2
  H2O(g)            0.78     -0.00   -0.78  H2O
  O2(g)           -12.05    -15.30   -3.25  O2

**For a gas, SI = log10(fugacity). Fugacity = pressure * phi / 1 atm.
  For ideal gases, phi = 1.

Reaction step 6.

Using solution 2.	
Using pure phase assemblage 1.	
Using temperature 1.	
Using pressure 1.	

----------------------------------User print-----------------------------------

 -1.0636e+01 
 -1.0636e+01 
  1.0383e+01 
  1.0383e+01 

-------------------------------Phase assemblage--------------------------------

                                                      Moles in assemblage
Phase               SI  log IAP  log K(T, P)   Initial       Final       Delta

Calcite           0.00   -10.64    -10.64    1.000e+01   1.000e+01  -1.954e-04

-----------------------------Solution composition------------------------------

	Elements           Molality       Moles

	C                 1.954e-04   1.954e-04
	Ca                1.954e-04   1.954e-04

----------------------------Description of solution----------------------------

                                       pH  =   7.439      Charge balance
                                       pe  =   2.727      Adjusted to redox equilibrium
      Specific Conductance (µS/cm, 200°C)  = 285
                          Density (g/cm³)  =   0.89721
                               Volume (L)  =   1.11458
                        Activity of water  =   1.000
                 Ionic strength (mol/kgw)  =   5.547e-04
                       Mass of water (kg)  =   1.000e+00
                 Total alkalinity (eq/kg)  =   3.907e-04
                       Total CO2 (mol/kg)  =   1.954e-04
                         Temperature (°C)  = 200.00
                           Pressure (atm)  = 500.00
                  Electrical balance (eq)  =  -1.217e-09
 Percent error, 100*(Cat-|An|)/(Cat+|An|)  =  -0.00
                               Iterations  =  13
                                  Total H  = 1.110124e+02
                                  Total O  = 5.550680e+01

----------------------------Distribution of species----------------------------

                                               Log       Log       Log    mole V
   Species          Molality    Activity  Molality  Activity     Gamma   cm³/mol

   OH-             2.364e-04   2.271e-04    -3.626    -3.644    -0.017    -22.29
   H+              3.783e-08   3.641e-08    -7.422    -7.439    -0.017      0.00
   H2O             5.551e+01   1.000e+00     1.744    -0.000     0.000     20.08
C(-4)         0.000e+00
   CH4             0.000e+00   0.000e+00   -79.438   -79.438     0.000     52.22
C(4)          1.954e-04
   HCO3-           1.381e-04   1.328e-04    -3.860    -3.877    -0.017     15.90
   CO2             4.135e-05   4.136e-05    -4.383    -4.383     0.000     49.59
   CaHCO3+         1.558e-05   1.498e-05    -4.807    -4.825    -0.017      9.44
   CO3-2           1.766e-07   1.509e-07    -6.753    -6.821    -0.068    -55.50
   CaCO3           1.537e-07   1.537e-07    -6.813    -6.813     0.000    -11.75
   (CO2)2          2.577e-10   2.577e-10    -9.589    -9.589     0.000     99.17
Ca            1.954e-04
   Ca+2            1.796e-04   1.534e-04    -3.746    -3.814    -0.069    -25.11
   CaHCO3+         1.558e-05   1.498e-05    -4.807    -4.825    -0.017      9.44
   CaCO3           1.537e-07   1.537e-07    -6.813    -6.813     0.000    -11.75
   CaOH+           6.822e-10   6.554e-10    -9.166    -9.183    -0.017     (0)  
H(0)          1.530e-24
   H2              7.648e-25   7.649e-25   -24.116   -24.116     0.000     28.35
O(0)          2.805e-09
   O2              1.402e-09   1.403e-09    -8.853    -8.853     0.000     36.14

------------------------------Saturation indices-------------------------------

  Phase               SI** log IAP   log K(473 K, 500 atm)

  Aragonite        -0.05    -10.64  -10.59  CaCO3
  Calcite           0.00    -10.64  -10.64  CaCO3
  CH4(g)          -76.40    -79.44   -3.04  CH4
  CO2(g)           -2.05     -4.38   -2.33  CO2
  H2(g)           -21.15    -24.12   -2.97  H2
  H2O(g)            1.26     -0.00   -1.26  H2O
  O2(g)            -5.78     -8.85   -3.07  O2

**For a gas, SI = log10(fugacity). Fugacity = pressure * phi / 1 atm.
  For ideal gases, phi = 1.

------------------
End of simulation.
------------------

------------------------------------
Reading input data for simulation 3.
------------------------------------

------------------------------
End of Run after 0.01 Seconds.
------------------------------

