WARNING: Database file from DATABASE keyword is used; command line argument ignored.
   Input file: lk_phase
  Output file: lk_phase.out
Database file: ../database/phreeqc.dat

------------------
Reading data base.
------------------

	SOLUTION_MASTER_SPECIES
	SOLUTION_SPECIES
	PHASES
	EXCHANGE_MASTER_SPECIES
	EXCHANGE_SPECIES
	SURFACE_MASTER_SPECIES
	SURFACE_SPECIES
	RATES
	END
------------------------------------
Reading input data for simulation 1.
------------------------------------

	database ../database/phreeqc.dat
	SELECTED_OUTPUT 101
	    file                 lk_phase_101.sel
	USER_PUNCH 101
	    headings Mu SC
	    start
	10 PUNCH STR_F$(MU, 20, 12)
	20 PUNCH STR_F$(SC, 20, 10)
	    end
	TITLE Solubility calcite
	SOLUTION
	REACTION_TEMPERATURE
	0 25 60 100 150 200
	EQUILIBRIUM_PHASES
	calcite
	USER_GRAPH 1
	-headings legend P_sat
	-axis_scale x_axis 0 200
	-connect_simulation false
	-start
	10 GRAPH_X TC
	20 GRAPH_Y LK_PHASE("Calcite")
	-end
	END
-----
TITLE
-----

 Solubility calcite

-------------------------------------------
Beginning of initial solution calculations.
-------------------------------------------

Initial solution 1.	

-----------------------------Solution composition------------------------------

	Elements           Molality       Moles

	Pure water     

----------------------------Description of solution----------------------------

                                       pH  =   7.000    
                                       pe  =   4.000    
      Specific Conductance (µS/cm,  25°C)  = 0
                          Density (g/cm³)  =   0.99704
                               Volume (L)  =   1.00297
                        Viscosity (mPa s)  =   0.89002
                        Activity of water  =   1.000
                 Ionic strength (mol/kgw)  =   1.007e-07
                       Mass of water (kg)  =   1.000e+00
                 Total alkalinity (eq/kg)  =   1.217e-09
                         Temperature (°C)  =  25.00
                  Electrical balance (eq)  =  -1.217e-09
 Percent error, 100*(Cat-|An|)/(Cat+|An|)  =  -0.60
                               Iterations  =   0
                                  Total H  = 1.110124e+02
                                  Total O  = 5.550622e+01

----------------------------Distribution of species----------------------------

                                               Log       Log       Log    mole V
   Species          Molality    Activity  Molality  Activity     Gamma   cm³/mol

   OH-             1.013e-07   1.012e-07    -6.995    -6.995    -0.000     -4.14
   H+              1.001e-07   1.000e-07    -7.000    -7.000    -0.000      0.00
   H2O             5.551e+01   1.000e+00     1.744     0.000     0.000     18.07
H(0)          1.416e-25
   H2              7.079e-26   7.079e-26   -25.150   -25.150     0.000     28.61
O(0)          0.000e+00
   O2              0.000e+00   0.000e+00   -42.080   -42.080     0.000     30.40

------------------------------Saturation indices-------------------------------

  Phase               SI** log IAP   log K(298 K,   1 atm)

  H2(g)           -22.05    -25.15   -3.10  H2
  H2O(g)           -1.50      0.00    1.50  H2O
  O2(g)           -39.19    -42.08   -2.89  O2

**For a gas, SI = log10(fugacity). Fugacity = pressure * phi / 1 atm.
  For ideal gases, phi = 1.

-----------------------------------------
Beginning of batch-reaction calculations.
-----------------------------------------

Reaction step 1.

Using solution 1.	
Using pure phase assemblage 1.	
Using temperature 1.	

-------------------------------Phase assemblage--------------------------------

                                                      Moles in assemblage
Phase               SI  log IAP  log K(T, P)   Initial       Final       Delta

Calcite           0.00    -8.39     -8.39    1.000e+01   1.000e+01  -1.034e-04

-----------------------------Solution composition------------------------------

	Elements           Molality       Moles

	C                 1.034e-04   1.034e-04
	Ca                1.034e-04   1.034e-04

----------------------------Description of solution----------------------------

                                       pH  =  10.610      Charge balance
                                       pe  =   9.345      Adjusted to redox equilibrium
      Specific Conductance (µS/cm,   0°C)  = 15
                          Density (g/cm³)  =   0.99985
                               Volume (L)  =   1.00016
                        Viscosity (mPa s)  =   1.79227
                        Activity of water  =   1.000
                 Ionic strength (mol/kgw)  =   3.414e-04
                       Mass of water (kg)  =   1.000e+00
                 Total alkalinity (eq/kg)  =   2.067e-04
                       Total CO2 (mol/kg)  =   1.034e-04
                         Temperature (°C)  =   0.00
                  Electrical balance (eq)  =  -1.216e-09
 Percent error, 100*(Cat-|An|)/(Cat+|An|)  =  -0.00
                               Iterations  =  19
                                  Total H  = 1.110124e+02
                                  Total O  = 5.550653e+01

----------------------------Distribution of species----------------------------

                                               Log       Log       Log    mole V
   Species          Molality    Activity  Molality  Activity     Gamma   cm³/mol

   OH-             4.788e-05   4.691e-05    -4.320    -4.329    -0.009     -6.18
   H+              2.505e-11   2.456e-11   -10.601   -10.610    -0.009      0.00
   H2O             5.551e+01   1.000e+00     1.744    -0.000     0.000     18.02
C(-4)         0.000e+00
   CH4             0.000e+00   0.000e+00  -140.032  -140.032     0.000     32.63
C(4)          1.034e-04
   CO3-2           4.931e-05   4.547e-05    -4.307    -4.342    -0.035     -9.53
   HCO3-           4.846e-05   4.749e-05    -4.315    -4.323    -0.009     20.77
   CaCO3           5.565e-06   5.565e-06    -5.255    -5.255     0.000    -14.71
   CaHCO3+         2.869e-08   2.812e-08    -7.542    -7.551    -0.009      8.12
   CO2             4.420e-09   4.420e-09    -8.355    -8.355     0.000     33.05
   (CO2)2          1.380e-19   1.380e-19   -18.860   -18.860     0.000     66.09
Ca            1.034e-04
   Ca+2            9.715e-05   8.960e-05    -4.013    -4.048    -0.035    -18.92
   CaCO3           5.565e-06   5.565e-06    -5.255    -5.255     0.000    -14.71
   CaOH+           6.178e-07   6.054e-07    -6.209    -6.218    -0.009     (0)  
   CaHCO3+         2.869e-08   2.812e-08    -7.542    -7.551    -0.009      8.12
H(0)          0.000e+00
   H2              0.000e+00   0.000e+00   -42.941   -42.941     0.000     28.65
O(0)          9.925e-16
   O2              4.963e-16   4.963e-16   -15.304   -15.304     0.000     27.49

------------------------------Saturation indices-------------------------------

  Phase               SI** log IAP   log K(273 K,   1 atm)

  Aragonite        -0.17     -8.39   -8.22  CaCO3
  Calcite           0.00     -8.39   -8.39  CaCO3
  CH4(g)         -137.56   -140.03   -2.47  CH4
  CO2(g)           -7.25     -8.35   -1.11  CO2
  H2(g)           -39.93    -42.94   -3.01  H2
  H2O(g)           -2.21     -0.00    2.21  H2O
  O2(g)           -12.65    -15.30   -2.66  O2

**For a gas, SI = log10(fugacity). Fugacity = pressure * phi / 1 atm.
  For ideal gases, phi = 1.

Reaction step 2.

Using solution 1.	
Using pure phase assemblage 1.	
Using temperature 1.	

-------------------------------Phase assemblage--------------------------------

                                                      Moles in assemblage
Phase               SI  log IAP  log K(T, P)   Initial       Final       Delta

Calcite           0.00    -8.48     -8.48    1.000e+01   1.000e+01  -1.230e-04

-----------------------------Solution composition------------------------------

	Elements           Molality       Moles

	C                 1.230e-04   1.230e-04
	Ca                1.230e-04   1.230e-04

----------------------------Description of solution----------------------------

                                       pH  =   9.907      Charge balance
                                       pe  =   7.787      Adjusted to redox equilibrium
      Specific Conductance (µS/cm,  25°C)  = 37
                          Density (g/cm³)  =   0.99706
                               Volume (L)  =   1.00296
                        Viscosity (mPa s)  =   0.89033
                        Activity of water  =   1.000
                 Ionic strength (mol/kgw)  =   3.855e-04
                       Mass of water (kg)  =   1.000e+00
                 Total alkalinity (eq/kg)  =   2.460e-04
                       Total CO2 (mol/kg)  =   1.230e-04
                         Temperature (°C)  =  25.00
                  Electrical balance (eq)  =  -1.217e-09
 Percent error, 100*(Cat-|An|)/(Cat+|An|)  =  -0.00
                               Iterations  =  17
                                  Total H  = 1.110124e+02
                                  Total O  = 5.550659e+01

----------------------------Distribution of species----------------------------

                                               Log       Log       Log    mole V
   Species          Molality    Activity  Molality  Activity     Gamma   cm³/mol

   OH-             8.352e-05   8.166e-05    -4.078    -4.088    -0.010     -4.12
   H+              1.267e-10   1.239e-10    -9.897    -9.907    -0.009      0.00
   H2O             5.551e+01   1.000e+00     1.744    -0.000     0.000     18.07
C(-4)         0.000e+00
   CH4             0.000e+00   0.000e+00  -124.804  -124.804     0.000     35.46
C(4)          1.230e-04
   HCO3-           8.351e-05   8.167e-05    -4.078    -4.088    -0.010     24.54
   CO3-2           3.378e-05   3.090e-05    -4.471    -4.510    -0.039     -4.12
   CaCO3           5.563e-06   5.563e-06    -5.255    -5.255     0.000    -14.60
   CaHCO3+         1.142e-07   1.117e-07    -6.942    -6.952    -0.010      9.66
   CO2             2.276e-08   2.276e-08    -7.643    -7.643     0.000     34.43
   (CO2)2          9.507e-18   9.508e-18   -17.022   -17.022     0.000     68.87
Ca            1.230e-04
   Ca+2            1.172e-04   1.072e-04    -3.931    -3.970    -0.039    -18.18
   CaCO3           5.563e-06   5.563e-06    -5.255    -5.255     0.000    -14.60
   CaOH+           1.468e-07   1.435e-07    -6.833    -6.843    -0.010     (0)  
   CaHCO3+         1.142e-07   1.117e-07    -6.942    -6.952    -0.010      9.66
H(0)          5.796e-39
   H2              2.898e-39   2.898e-39   -38.538   -38.538     0.000     28.61
O(0)          9.926e-16
   O2              4.963e-16   4.963e-16   -15.304   -15.304     0.000     30.40

------------------------------Saturation indices-------------------------------

  Phase               SI** log IAP   log K(298 K,   1 atm)

  Aragonite        -0.14     -8.48   -8.34  CaCO3
  Calcite           0.00     -8.48   -8.48  CaCO3
  CH4(g)         -122.00   -124.80   -2.80  CH4
  CO2(g)           -6.17     -7.64   -1.47  CO2
  H2(g)           -35.44    -38.54   -3.10  H2
  H2O(g)           -1.50     -0.00    1.50  H2O
  O2(g)           -12.41    -15.30   -2.89  O2

**For a gas, SI = log10(fugacity). Fugacity = pressure * phi / 1 atm.
  For ideal gases, phi = 1.

Reaction step 3.

Using solution 1.	
Using pure phase assemblage 1.	
Using temperature 1.	

-------------------------------Phase assemblage--------------------------------

                                                      Moles in assemblage
Phase               SI  log IAP  log K(T, P)   Initial       Final       Delta

Calcite           0.00    -8.88     -8.88    1.000e+01   1.000e+01  -1.417e-04

-----------------------------Solution composition------------------------------

	Elements           Molality       Moles

	C                 1.417e-04   1.417e-04
	Ca                1.417e-04   1.417e-04

----------------------------Description of solution----------------------------

                                       pH  =   9.098      Charge balance
                                       pe  =   6.001      Adjusted to redox equilibrium
      Specific Conductance (µS/cm,  60°C)  = 80
                          Density (g/cm³)  =   0.98321
                               Volume (L)  =   1.01710
                        Viscosity (mPa s)  =   0.46625
                        Activity of water  =   1.000
                 Ionic strength (mol/kgw)  =   4.188e-04
                       Mass of water (kg)  =   1.000e+00
                 Total alkalinity (eq/kg)  =   2.835e-04
                       Total CO2 (mol/kg)  =   1.417e-04
                         Temperature (°C)  =  60.00
                  Electrical balance (eq)  =  -1.217e-09
 Percent error, 100*(Cat-|An|)/(Cat+|An|)  =  -0.00
                               Iterations  =  15
                                  Total H  = 1.110124e+02
                                  Total O  = 5.550664e+01

----------------------------Distribution of species----------------------------

                                               Log       Log       Log    mole V
   Species          Molality    Activity  Molality  Activity     Gamma   cm³/mol

   OH-             1.240e-04   1.209e-04    -3.907    -3.917    -0.011     -3.97
   H+              8.179e-10   7.983e-10    -9.087    -9.098    -0.011      0.00
   H2O             5.551e+01   1.000e+00     1.744    -0.000     0.000     18.32
C(-4)         0.000e+00
   CH4             0.000e+00   0.000e+00  -107.583  -107.583     0.000     38.02
C(4)          1.417e-04
   HCO3-           1.234e-04   1.204e-04    -3.909    -3.919    -0.011     25.62
   CO3-2           1.196e-05   1.083e-05    -4.922    -4.965    -0.043     -3.54
   CaCO3           5.938e-06   5.939e-06    -5.226    -5.226     0.000    -14.51
   CaHCO3+         2.565e-07   2.503e-07    -6.591    -6.602    -0.011     10.41
   CO2             1.875e-07   1.875e-07    -6.727    -6.727     0.000     36.19
   (CO2)2          1.663e-15   1.663e-15   -14.779   -14.779     0.000     72.38
Ca            1.417e-04
   Ca+2            1.355e-04   1.227e-04    -3.868    -3.911    -0.043    -18.43
   CaCO3           5.938e-06   5.939e-06    -5.226    -5.226     0.000    -14.51
   CaHCO3+         2.565e-07   2.503e-07    -6.591    -6.602    -0.011     10.41
   CaOH+           2.616e-08   2.551e-08    -7.582    -7.593    -0.011     (0)  
H(0)          6.568e-34
   H2              3.284e-34   3.284e-34   -33.484   -33.484     0.000     28.58
O(0)          9.926e-16
   O2              4.963e-16   4.963e-16   -15.304   -15.304     0.000     32.38

------------------------------Saturation indices-------------------------------

  Phase               SI** log IAP   log K(333 K,   1 atm)

  Aragonite        -0.24     -8.88   -8.64  CaCO3
  Calcite           0.00     -8.88   -8.88  CaCO3
  CH4(g)         -104.59   -107.58   -2.99  CH4
  CO2(g)           -4.94     -6.73   -1.78  CO2
  H2(g)           -30.34    -33.48   -3.14  H2
  H2O(g)           -0.71     -0.00    0.71  H2O
  O2(g)           -12.24    -15.30   -3.06  O2

**For a gas, SI = log10(fugacity). Fugacity = pressure * phi / 1 atm.
  For ideal gases, phi = 1.

Reaction step 4.

Using solution 1.	
Using pure phase assemblage 1.	
Using temperature 1.	

-------------------------------Phase assemblage--------------------------------

                                                      Moles in assemblage
Phase               SI  log IAP  log K(T, P)   Initial       Final       Delta

Calcite           0.00    -9.61     -9.61    1.000e+01   1.000e+01  -1.386e-04

-----------------------------Solution composition------------------------------

	Elements           Molality       Moles

	C                 1.386e-04   1.386e-04
	Ca                1.386e-04   1.386e-04

----------------------------Description of solution----------------------------

                                       pH  =   8.355      Charge balance
                                       pe  =   4.375      Adjusted to redox equilibrium
      Specific Conductance (µS/cm, 100°C)  = 123
                          Density (g/cm³)  =   0.95836
                               Volume (L)  =   1.04346
                        Viscosity (mPa s)  =   0.28177
                        Activity of water  =   1.000
                 Ionic strength (mol/kgw)  =   4.066e-04
                       Mass of water (kg)  =   1.000e+00
                 Total alkalinity (eq/kg)  =   2.773e-04
                       Total CO2 (mol/kg)  =   1.386e-04
                         Temperature (°C)  = 100.00
                  Electrical balance (eq)  =  -1.213e-09
 Percent error, 100*(Cat-|An|)/(Cat+|An|)  =  -0.00
                               Iterations  =  13
                                  Total H  = 1.110124e+02
                                  Total O  = 5.550663e+01

----------------------------Distribution of species----------------------------

                                               Log       Log       Log    mole V
   Species          Molality    Activity  Molality  Activity     Gamma   cm³/mol

   OH-             1.343e-04   1.307e-04    -3.872    -3.884    -0.012     -5.92
   H+              4.538e-09   4.420e-09    -8.343    -8.355    -0.011      0.00
   H2O             5.551e+01   1.000e+00     1.744    -0.000     0.000     18.80
C(-4)         0.000e+00
   CH4             0.000e+00   0.000e+00   -92.162   -92.162     0.000     41.06
C(4)          1.386e-04
   HCO3-           1.309e-04   1.275e-04    -3.883    -3.895    -0.012     24.02
   CaCO3           3.602e-06   3.602e-06    -5.443    -5.443     0.000    -14.43
   CO3-2           2.246e-06   2.017e-06    -5.649    -5.695    -0.047     -8.21
   CO2             1.505e-06   1.505e-06    -5.823    -5.823     0.000     38.89
   CaHCO3+         3.592e-07   3.497e-07    -6.445    -6.456    -0.012     10.50
   (CO2)2          2.101e-13   2.101e-13   -12.678   -12.678     0.000     77.78
Ca            1.386e-04
   Ca+2            1.347e-04   1.209e-04    -3.871    -3.917    -0.047    -19.87
   CaCO3           3.602e-06   3.602e-06    -5.443    -5.443     0.000    -14.43
   CaHCO3+         3.592e-07   3.497e-07    -6.445    -6.456    -0.012     10.50
   CaOH+           4.665e-09   4.540e-09    -8.331    -8.343    -0.012     (0)  
H(0)          2.709e-29
   H2              1.355e-29   1.355e-29   -28.868   -28.868     0.000     28.57
O(0)          9.926e-16
   O2              4.963e-16   4.963e-16   -15.304   -15.304     0.000     33.90

------------------------------Saturation indices-------------------------------

  Phase               SI** log IAP   log K(373 K,   1 atm)

  Aragonite        -0.45     -9.61   -9.17  CaCO3
  Calcite           0.00     -9.61   -9.61  CaCO3
  CH4(g)          -89.16    -92.16   -3.00  CH4
  CO2(g)           -3.84     -5.82   -1.98  CO2
  H2(g)           -25.77    -28.87   -3.10  H2
  H2O(g)           -0.01     -0.00    0.00  H2O
  O2(g)           -12.19    -15.30   -3.11  O2

**For a gas, SI = log10(fugacity). Fugacity = pressure * phi / 1 atm.
  For ideal gases, phi = 1.

Reaction step 5.

Using solution 1.	
Using pure phase assemblage 1.	
Using temperature 1.	

-------------------------------Phase assemblage--------------------------------

                                                      Moles in assemblage
Phase               SI  log IAP  log K(T, P)   Initial       Final       Delta

Calcite           0.00   -10.83    -10.83    1.000e+01   1.000e+01  -1.014e-04

-----------------------------Solution composition------------------------------

	Elements           Molality       Moles

	C                 1.014e-04   1.014e-04
	Ca                1.014e-04   1.014e-04

----------------------------Description of solution----------------------------

                                       pH  =   7.663      Charge balance
                                       pe  =   2.742      Adjusted to redox equilibrium
      Specific Conductance (µS/cm, 150°C)  = 134
                          Density (g/cm³)  =   0.91702
                               Volume (L)  =   1.09050
                        Viscosity (mPa s)  =   0.18268
                        Activity of water  =   1.000
                 Ionic strength (mol/kgw)  =   3.020e-04
                       Mass of water (kg)  =   1.000e+00
                 Total alkalinity (eq/kg)  =   2.029e-04
                       Total CO2 (mol/kg)  =   1.014e-04
                         Temperature (°C)  = 150.00
                           Pressure (atm)  =  4.70
                  Electrical balance (eq)  =  -1.217e-09
 Percent error, 100*(Cat-|An|)/(Cat+|An|)  =  -0.00
                               Iterations  =  12
                                  Total H  = 1.110124e+02
                                  Total O  = 5.550652e+01

----------------------------Distribution of species----------------------------

                                               Log       Log       Log    mole V
   Species          Molality    Activity  Molality  Activity     Gamma   cm³/mol

   OH-             1.119e-04   1.089e-04    -3.951    -3.963    -0.012    -12.05
   H+              2.230e-08   2.172e-08    -7.652    -7.663    -0.011      0.00
   H2O             5.551e+01   1.000e+00     1.744    -0.000     0.000     19.65
C(-4)         0.000e+00
   CH4             0.000e+00   0.000e+00   -77.504   -77.504     0.000     46.91
C(4)          1.014e-04
   HCO3-           8.917e-05   8.682e-05    -4.050    -4.061    -0.012     17.75
   CO2             1.104e-05   1.104e-05    -4.957    -4.957     0.000     44.77
   CaHCO3+         5.881e-07   5.726e-07    -6.231    -6.242    -0.012      9.80
   CaCO3           4.499e-07   4.499e-07    -6.347    -6.347     0.000    -14.28
   CO3-2           1.832e-07   1.646e-07    -6.737    -6.783    -0.046    -23.06
   (CO2)2          1.705e-11   1.705e-11   -10.768   -10.768     0.000     89.53
Ca            1.014e-04
   Ca+2            1.004e-04   9.020e-05    -3.998    -4.045    -0.046    -23.91
   CaHCO3+         5.881e-07   5.726e-07    -6.231    -6.242    -0.012      9.80
   CaCO3           4.499e-07   4.499e-07    -6.347    -6.347     0.000    -14.28
   CaOH+           7.076e-10   6.887e-10    -9.150    -9.162    -0.012     (0)  
H(0)          9.079e-25
   H2              4.539e-25   4.540e-25   -24.343   -24.343     0.000     28.56
O(0)          1.067e-15
   O2              5.336e-16   5.337e-16   -15.273   -15.273     0.000     35.91

------------------------------Saturation indices-------------------------------

  Phase               SI** log IAP   log K(423 K,   5 atm)

  Aragonite        -0.76    -10.83  -10.07  CaCO3
  Calcite           0.00    -10.83  -10.83  CaCO3
  CH4(g)          -74.61    -77.50   -2.90  CH4
  CO2(g)           -2.88     -4.96   -2.07  CO2
  H2(g)           -21.36    -24.34   -2.98  H2
  H2O(g)            0.66     -0.00   -0.66  H2O
  O2(g)           -12.23    -15.27   -3.04  O2

**For a gas, SI = log10(fugacity). Fugacity = pressure * phi / 1 atm.
  For ideal gases, phi = 1.

Reaction step 6.

Using solution 1.	
Using pure phase assemblage 1.	
Using temperature 1.	

-------------------------------Phase assemblage--------------------------------

                                                      Moles in assemblage
Phase               SI  log IAP  log K(T, P)   Initial       Final       Delta

Calcite           0.00   -12.27    -12.27    1.000e+01   1.000e+01  -6.287e-05

-----------------------------Solution composition------------------------------

	Elements           Molality       Moles

	C                 6.287e-05   6.287e-05
	Ca                6.287e-05   6.287e-05

----------------------------Description of solution----------------------------

                                       pH  =   7.263      Charge balance
                                       pe  =   2.979      Adjusted to redox equilibrium
      Specific Conductance (µS/cm, 200°C)  = 112
                          Density (g/cm³)  =   0.86468
                               Volume (L)  =   1.15651
                        Viscosity (mPa s)  =   0.13771
                        Activity of water  =   1.000
                 Ionic strength (mol/kgw)  =   1.853e-04
                       Mass of water (kg)  =   1.000e+00
                 Total alkalinity (eq/kg)  =   1.257e-04
                       Total CO2 (mol/kg)  =   6.287e-05
                         Temperature (°C)  = 200.00
                           Pressure (atm)  = 15.38
                  Electrical balance (eq)  =  -1.217e-09
 Percent error, 100*(Cat-|An|)/(Cat+|An|)  =  -0.00
                               Iterations  =  12
                                  Total H  = 1.110124e+02
                                  Total O  = 5.550641e+01

----------------------------Distribution of species----------------------------

                                               Log       Log       Log    mole V
   Species          Molality    Activity  Molality  Activity     Gamma   cm³/mol

   OH-             9.164e-05   8.938e-05    -4.038    -4.049    -0.011    -26.21
   H+              5.596e-08   5.462e-08    -7.252    -7.263    -0.011      0.00
   H2O             5.551e+01   1.000e+00     1.744    -0.000     0.000     20.84
C(-4)         0.000e+00
   CH4             0.000e+00   0.000e+00   -79.971   -79.971     0.000     58.68
C(4)          6.287e-05
   HCO3-           3.247e-05   3.167e-05    -4.489    -4.499    -0.011      2.73
   CO2             2.873e-05   2.873e-05    -4.542    -4.542     0.000     57.09
   CaHCO3+         1.658e-06   1.618e-06    -5.780    -5.791    -0.011      7.71
   CO3-2           1.082e-08   9.801e-09    -7.966    -8.009    -0.043    -57.42
   CaCO3           8.496e-09   8.497e-09    -8.071    -8.071     0.000    -13.98
   (CO2)2          1.243e-10   1.244e-10    -9.905    -9.905     0.000    114.18
Ca            6.287e-05
   Ca+2            6.120e-05   5.542e-05    -4.213    -4.256    -0.043    -33.01
   CaHCO3+         1.658e-06   1.618e-06    -5.780    -5.791    -0.011      7.71
   CaCO3           8.496e-09   8.497e-09    -8.071    -8.071     0.000    -13.98
   CaOH+           1.719e-10   1.677e-10    -9.765    -9.776    -0.011     (0)  
H(0)          1.537e-24
   H2              7.684e-25   7.684e-25   -24.114   -24.114     0.000     28.55
O(0)          5.361e-09
   O2              2.680e-09   2.680e-09    -8.572    -8.572     0.000     39.26

------------------------------Saturation indices-------------------------------

  Phase               SI** log IAP   log K(473 K,  15 atm)

  Aragonite        -1.06    -12.27  -11.21  CaCO3
  Calcite           0.00    -12.27  -12.27  CaCO3
  CH4(g)          -77.22    -79.97   -2.75  CH4
  CO2(g)           -2.48     -4.54   -2.06  CO2
  H2(g)           -21.30    -24.11   -2.81  H2
  H2O(g)            1.16     -0.00   -1.16  H2O
  O2(g)            -5.70     -8.57   -2.87  O2

**For a gas, SI = log10(fugacity). Fugacity = pressure * phi / 1 atm.
  For ideal gases, phi = 1.

------------------
End of simulation.
------------------

------------------------------------
Reading input data for simulation 2.
------------------------------------

	SOLUTION 2
	user_print
	10 PRINT LK_PHASE("Calcite")
	15 PRINT LA("Ca+2") + LA("CO3-2") - SI("Calcite")
	20 PRINT LK_SPECIES("HCO3-")
	30 PRINT LA("HCO3-") - LA("H+") - LA("CO3-2") 
	USE REACTION_TEMPERATURE
WARNING: No number given, 1 assumed.
	REACTION_PRESSURE
	500
	EQUILIBRIUM_PHASES
	calcite
	USER_GRAPH 1
	-headings legend 500_atm
	END
-------------------------------------------
Beginning of initial solution calculations.
-------------------------------------------

Initial solution 2.	

----------------------------------User print-----------------------------------

 -8.4800e+00 
 -9.9990e+01 
  1.0329e+01 
  6.9999e+00 

-----------------------------Solution composition------------------------------

	Elements           Molality       Moles

	Pure water     

----------------------------Description of solution----------------------------

                                       pH  =   7.000    
                                       pe  =   4.000    
      Specific Conductance (µS/cm,  25°C)  = 0
                          Density (g/cm³)  =   0.99704
                               Volume (L)  =   1.00297
                        Viscosity (mPa s)  =   0.89002
                        Activity of water  =   1.000
                 Ionic strength (mol/kgw)  =   1.007e-07
                       Mass of water (kg)  =   1.000e+00
                 Total alkalinity (eq/kg)  =   1.217e-09
                         Temperature (°C)  =  25.00
                  Electrical balance (eq)  =  -1.217e-09
 Percent error, 100*(Cat-|An|)/(Cat+|An|)  =  -0.60
                               Iterations  =   0
                                  Total H  = 1.110124e+02
                                  Total O  = 5.550622e+01

----------------------------Distribution of species----------------------------

                                               Log       Log       Log    mole V
   Species          Molality    Activity  Molality  Activity     Gamma   cm³/mol

   OH-             1.013e-07   1.012e-07    -6.995    -6.995    -0.000     -4.14
   H+              1.001e-07   1.000e-07    -7.000    -7.000    -0.000      0.00
   H2O             5.551e+01   1.000e+00     1.744     0.000     0.000     18.07
H(0)          1.416e-25
   H2              7.079e-26   7.079e-26   -25.150   -25.150     0.000     28.61
O(0)          0.000e+00
   O2              0.000e+00   0.000e+00   -42.080   -42.080     0.000     30.40

------------------------------Saturation indices-------------------------------

  Phase               SI** log IAP   log K(298 K,   1 atm)

  H2(g)           -22.05    -25.15   -3.10  H2
  H2O(g)           -1.50      0.00    1.50  H2O
  O2(g)           -39.19    -42.08   -2.89  O2

**For a gas, SI = log10(fugacity). Fugacity = pressure * phi / 1 atm.
  For ideal gases, phi = 1.

-----------------------------------------
Beginning of batch-reaction calculations.
-----------------------------------------

Reaction step 1.

Using solution 2.	
Using pure phase assemblage 1.	
Using temperature 1.	
Using pressure 1.	

----------------------------------User print-----------------------------------

 -7.8299e+00 
 -7.8299e+00 
  1.0368e+01 
  1.0368e+01 

-------------------------------Phase assemblage--------------------------------

                                                      Moles in assemblage
Phase               SI  log IAP  log K(T, P)   Initial       Final       Delta

Calcite           0.00    -7.83     -7.83    1.000e+01   1.000e+01  -1.876e-04

-----------------------------Solution composition------------------------------

	Elements           Molality       Moles

	C                 1.876e-04   1.876e-04
	Ca                1.876e-04   1.876e-04

----------------------------Description of solution----------------------------

                                       pH  =  10.557      Charge balance
                                       pe  =   9.379      Adjusted to redox equilibrium
      Specific Conductance (µS/cm,   0°C)  = 25
                          Density (g/cm³)  =   1.02415
                               Volume (L)  =   0.97643
                        Viscosity (mPa s)  =   1.70460
                        Activity of water  =   1.000
                 Ionic strength (mol/kgw)  =   6.193e-04
                       Mass of water (kg)  =   1.000e+00
                 Total alkalinity (eq/kg)  =   3.752e-04
                       Total CO2 (mol/kg)  =   1.876e-04
                         Temperature (°C)  =   0.00
                           Pressure (atm)  = 500.00
                  Electrical balance (eq)  =  -1.217e-09
 Percent error, 100*(Cat-|An|)/(Cat+|An|)  =  -0.00
                               Iterations  =  20
                                  Total H  = 1.110124e+02
                                  Total O  = 5.550678e+01

----------------------------Distribution of species----------------------------

                                               Log       Log       Log    mole V
   Species          Molality    Activity  Molality  Activity     Gamma   cm³/mol

   OH-             6.311e-05   6.145e-05    -4.200    -4.212    -0.012      0.06
   H+              2.842e-11   2.770e-11   -10.546   -10.557    -0.011      0.00
   H2O             5.551e+01   1.000e+00     1.744    -0.000     0.000     17.59
C(-4)         0.000e+00
   CH4             0.000e+00   0.000e+00  -140.344  -140.344     0.000     33.66
C(4)          1.876e-04
   CO3-2           1.073e-04   9.653e-05    -3.970    -4.015    -0.046     -5.73
   HCO3-           6.404e-05   6.237e-05    -4.194    -4.205    -0.011     21.25
   CaCO3           1.620e-05   1.621e-05    -4.790    -4.790     0.000    -11.11
   CaHCO3+         5.951e-08   5.797e-08    -7.225    -7.237    -0.011      9.80
   CO2             3.394e-09   3.395e-09    -8.469    -8.469     0.000     33.16
   (CO2)2          8.137e-20   8.139e-20   -19.090   -19.089     0.000     66.32
Ca            1.876e-04
   Ca+2            1.703e-04   1.533e-04    -3.769    -3.815    -0.046    -15.30
   CaCO3           1.620e-05   1.621e-05    -4.790    -4.790     0.000    -11.11
   CaOH+           9.923e-07   9.662e-07    -6.003    -6.015    -0.012     (0)  
   CaHCO3+         5.951e-08   5.797e-08    -7.225    -7.237    -0.011      9.80
H(0)          0.000e+00
   H2              0.000e+00   0.000e+00   -43.179   -43.179     0.000     28.44
O(0)          9.925e-16
   O2              4.963e-16   4.963e-16   -15.304   -15.304     0.000     27.50

------------------------------Saturation indices-------------------------------

  Phase               SI** log IAP   log K(273 K, 500 atm)

  Aragonite        -0.14     -7.83   -7.69  CaCO3
  Calcite           0.00     -7.83   -7.83  CaCO3
  CH4(g)         -137.54   -140.34   -2.80  CH4
  CO2(g)           -7.04     -8.47   -1.43  CO2
  H2(g)           -39.89    -43.18   -3.29  H2
  H2O(g)           -2.04     -0.00    2.04  H2O
  O2(g)           -12.38    -15.30   -2.92  O2

**For a gas, SI = log10(fugacity). Fugacity = pressure * phi / 1 atm.
  For ideal gases, phi = 1.

Reaction step 2.

Using solution 2.	
Using pure phase assemblage 1.	
Using temperature 1.	
Using pressure 1.	

----------------------------------User print-----------------------------------

 -8.0195e+00 
 -8.0195e+00 
  1.0105e+01 
  1.0105e+01 

-------------------------------Phase assemblage--------------------------------

                                                      Moles in assemblage
Phase               SI  log IAP  log K(T, P)   Initial       Final       Delta

Calcite           0.00    -8.02     -8.02    1.000e+01   1.000e+01  -1.930e-04

-----------------------------Solution composition------------------------------

	Elements           Molality       Moles

	C                 1.930e-04   1.930e-04
	Ca                1.930e-04   1.930e-04

----------------------------Description of solution----------------------------

                                       pH  =   9.850      Charge balance
                                       pe  =   7.832      Adjusted to redox equilibrium
      Specific Conductance (µS/cm,  25°C)  = 54
                          Density (g/cm³)  =   1.01875
                               Volume (L)  =   0.98161
                        Viscosity (mPa s)  =   0.88765
                        Activity of water  =   1.000
                 Ionic strength (mol/kgw)  =   6.001e-04
                       Mass of water (kg)  =   1.000e+00
                 Total alkalinity (eq/kg)  =   3.859e-04
                       Total CO2 (mol/kg)  =   1.930e-04
                         Temperature (°C)  =  25.00
                           Pressure (atm)  = 500.00
                  Electrical balance (eq)  =  -1.217e-09
 Percent error, 100*(Cat-|An|)/(Cat+|An|)  =  -0.00
                               Iterations  =  18
                                  Total H  = 1.110124e+02
                                  Total O  = 5.550680e+01

----------------------------Distribution of species----------------------------

                                               Log       Log       Log    mole V
   Species          Molality    Activity  Molality  Activity     Gamma   cm³/mol

   OH-             1.111e-04   1.081e-04    -3.954    -3.966    -0.012     -2.50
   H+              1.451e-10   1.414e-10    -9.838    -9.850    -0.011      0.00
   H2O             5.551e+01   1.000e+00     1.744    -0.000     0.000     17.68
C(-4)         0.000e+00
   CH4             0.000e+00   0.000e+00  -125.093  -125.092     0.000     36.02
C(4)          1.930e-04
   HCO3-           1.110e-04   1.081e-04    -3.955    -3.966    -0.012     25.13
   CO3-2           6.678e-05   5.996e-05    -4.175    -4.222    -0.047     -0.08
   CaCO3           1.493e-05   1.493e-05    -4.826    -4.826     0.000    -11.51
   CaHCO3+         2.228e-07   2.169e-07    -6.652    -6.664    -0.012     10.78
   CO2             1.990e-08   1.990e-08    -7.701    -7.701     0.000     34.20
   (CO2)2          7.269e-18   7.270e-18   -17.139   -17.138     0.000     68.40
Ca            1.930e-04
   Ca+2            1.776e-04   1.595e-04    -3.751    -3.797    -0.047    -15.00
   CaCO3           1.493e-05   1.493e-05    -4.826    -4.826     0.000    -11.51
   CaHCO3+         2.228e-07   2.169e-07    -6.652    -6.664    -0.012     10.78
   CaOH+           2.032e-07   1.977e-07    -6.692    -6.704    -0.012     (0)  
H(0)          3.438e-39
   H2              1.719e-39   1.719e-39   -38.765   -38.765     0.000     28.40
O(0)          9.926e-16
   O2              4.963e-16   4.964e-16   -15.304   -15.304     0.000     29.76

------------------------------Saturation indices-------------------------------

  Phase               SI** log IAP   log K(298 K, 500 atm)

  Aragonite        -0.12     -8.02   -7.90  CaCO3
  Calcite           0.00     -8.02   -8.02  CaCO3
  CH4(g)         -121.97   -125.09   -3.12  CH4
  CO2(g)           -5.93     -7.70   -1.77  CO2
  H2(g)           -35.41    -38.76   -3.35  H2
  H2O(g)           -1.35     -0.00    1.35  H2O
  O2(g)           -12.15    -15.30   -3.16  O2

**For a gas, SI = log10(fugacity). Fugacity = pressure * phi / 1 atm.
  For ideal gases, phi = 1.

Reaction step 3.

Using solution 2.	
Using pure phase assemblage 1.	
Using temperature 1.	
Using pressure 1.	

----------------------------------User print-----------------------------------

 -8.4715e+00 
 -8.4715e+00 
  9.9428e+00 
  9.9428e+00 

-------------------------------Phase assemblage--------------------------------

                                                      Moles in assemblage
Phase               SI  log IAP  log K(T, P)   Initial       Final       Delta

Calcite           0.00    -8.47     -8.47    1.000e+01   1.000e+01  -2.028e-04

-----------------------------Solution composition------------------------------

	Elements           Molality       Moles

	C                 2.028e-04   2.028e-04
	Ca                2.028e-04   2.028e-04

----------------------------Description of solution----------------------------

                                       pH  =   9.041      Charge balance
                                       pe  =   6.048      Adjusted to redox equilibrium
      Specific Conductance (µS/cm,  60°C)  = 106
                          Density (g/cm³)  =   1.00404
                               Volume (L)  =   0.99600
                        Viscosity (mPa s)  =   0.47878
                        Activity of water  =   1.000
                 Ionic strength (mol/kgw)  =   5.866e-04
                       Mass of water (kg)  =   1.000e+00
                 Total alkalinity (eq/kg)  =   4.055e-04
                       Total CO2 (mol/kg)  =   2.028e-04
                         Temperature (°C)  =  60.00
                           Pressure (atm)  = 500.00
                  Electrical balance (eq)  =  -1.217e-09
 Percent error, 100*(Cat-|An|)/(Cat+|An|)  =  -0.00
                               Iterations  =  15
                                  Total H  = 1.110124e+02
                                  Total O  = 5.550683e+01

----------------------------Distribution of species----------------------------

                                               Log       Log       Log    mole V
   Species          Molality    Activity  Molality  Activity     Gamma   cm³/mol

   OH-             1.659e-04   1.612e-04    -3.780    -3.793    -0.013     -4.91
   H+              9.344e-10   9.089e-10    -9.029    -9.041    -0.012      0.00
   H2O             5.551e+01   1.000e+00     1.744    -0.000     0.000     17.94
C(-4)         0.000e+00
   CH4             0.000e+00   0.000e+00  -107.847  -107.847     0.000     38.12
C(4)          2.028e-04
   HCO3-           1.651e-04   1.605e-04    -3.782    -3.795    -0.012     26.53
   CO3-2           2.256e-05   2.014e-05    -4.647    -4.696    -0.049      1.18
   CaCO3           1.443e-05   1.443e-05    -4.841    -4.841     0.000    -11.73
   CaHCO3+         4.683e-07   4.552e-07    -6.330    -6.342    -0.012     11.24
   CO2             1.739e-07   1.740e-07    -6.760    -6.760     0.000     35.57
   (CO2)2          1.431e-15   1.432e-15   -14.844   -14.844     0.000     71.13
Ca            2.028e-04
   Ca+2            1.878e-04   1.676e-04    -3.726    -3.776    -0.049    -15.38
   CaCO3           1.443e-05   1.443e-05    -4.841    -4.841     0.000    -11.73
   CaHCO3+         4.683e-07   4.552e-07    -6.330    -6.342    -0.012     11.24
   CaOH+           3.301e-08   3.208e-08    -7.481    -7.494    -0.012     (0)  
H(0)          4.080e-34
   H2              2.040e-34   2.040e-34   -33.690   -33.690     0.000     28.38
O(0)          9.925e-16
   O2              4.962e-16   4.963e-16   -15.304   -15.304     0.000     31.30

------------------------------Saturation indices-------------------------------

  Phase               SI** log IAP   log K(333 K, 500 atm)

  Aragonite        -0.22     -8.47   -8.26  CaCO3
  Calcite           0.00     -8.47   -8.47  CaCO3
  CH4(g)         -104.55   -107.85   -3.29  CH4
  CO2(g)           -4.69     -6.76   -2.07  CO2
  H2(g)           -30.33    -33.69   -3.36  H2
  H2O(g)           -0.57     -0.00    0.57  H2O
  O2(g)           -11.99    -15.30   -3.31  O2

**For a gas, SI = log10(fugacity). Fugacity = pressure * phi / 1 atm.
  For ideal gases, phi = 1.

Reaction step 4.

Using solution 2.	
Using pure phase assemblage 1.	
Using temperature 1.	
Using pressure 1.	

----------------------------------User print-----------------------------------

 -9.2210e+00 
 -9.2210e+00 
  9.9604e+00 
  9.9604e+00 

-------------------------------Phase assemblage--------------------------------

                                                      Moles in assemblage
Phase               SI  log IAP  log K(T, P)   Initial       Final       Delta

Calcite           0.00    -9.22     -9.22    1.000e+01   1.000e+01  -1.911e-04

-----------------------------Solution composition------------------------------

	Elements           Molality       Moles

	C                 1.911e-04   1.911e-04
	Ca                1.911e-04   1.911e-04

----------------------------Description of solution----------------------------

                                       pH  =   8.296      Charge balance
                                       pe  =   4.426      Adjusted to redox equilibrium
      Specific Conductance (µS/cm, 100°C)  = 158
                          Density (g/cm³)  =   0.98062
                               Volume (L)  =   1.01978
                        Viscosity (mPa s)  =   0.29524
                        Activity of water  =   1.000
                 Ionic strength (mol/kgw)  =   5.522e-04
                       Mass of water (kg)  =   1.000e+00
                 Total alkalinity (eq/kg)  =   3.821e-04
                       Total CO2 (mol/kg)  =   1.911e-04
                         Temperature (°C)  = 100.00
                           Pressure (atm)  = 500.00
                  Electrical balance (eq)  =  -1.217e-09
 Percent error, 100*(Cat-|An|)/(Cat+|An|)  =  -0.00
                               Iterations  =  14
                                  Total H  = 1.110124e+02
                                  Total O  = 5.550679e+01

----------------------------Distribution of species----------------------------

                                               Log       Log       Log    mole V
   Species          Molality    Activity  Molality  Activity     Gamma   cm³/mol

   OH-             1.803e-04   1.749e-04    -3.744    -3.757    -0.013     -7.78
   H+              5.208e-09   5.058e-09    -8.283    -8.296    -0.013      0.00
   H2O             5.551e+01   1.000e+00     1.744    -0.000     0.000     18.37
C(-4)         0.000e+00
   CH4             0.000e+00   0.000e+00   -92.409   -92.409     0.000     40.52
C(4)          1.911e-04
   HCO3-           1.769e-04   1.716e-04    -3.752    -3.765    -0.013     25.63
   CaCO3           7.969e-06   7.970e-06    -5.099    -5.099     0.000    -11.83
   CO3-2           4.193e-06   3.717e-06    -5.377    -5.430    -0.052     -1.90
   CO2             1.413e-06   1.413e-06    -5.850    -5.850     0.000     37.63
   CaHCO3+         6.263e-07   6.079e-07    -6.203    -6.216    -0.013     11.24
   (CO2)2          1.854e-13   1.854e-13   -12.732   -12.732     0.000     75.25
Ca            1.911e-04
   Ca+2            1.825e-04   1.617e-04    -3.739    -3.791    -0.052    -16.57
   CaCO3           7.969e-06   7.970e-06    -5.099    -5.099     0.000    -11.83
   CaHCO3+         6.263e-07   6.079e-07    -6.203    -6.216    -0.013     11.24
   CaOH+           5.634e-09   5.465e-09    -8.249    -8.262    -0.013     (0)  
H(0)          1.767e-29
   H2              8.834e-30   8.835e-30   -29.054   -29.054     0.000     28.36
O(0)          9.924e-16
   O2              4.962e-16   4.963e-16   -15.304   -15.304     0.000     32.48

------------------------------Saturation indices-------------------------------

  Phase               SI** log IAP   log K(373 K, 500 atm)

  Aragonite        -0.43     -9.22   -8.79  CaCO3
  Calcite           0.00     -9.22   -9.22  CaCO3
  CH4(g)          -89.12    -92.41   -3.29  CH4
  CO2(g)           -3.60     -5.85   -2.25  CO2
  H2(g)           -25.75    -29.05   -3.30  H2
  H2O(g)            0.13     -0.00   -0.13  H2O
  O2(g)           -11.96    -15.30   -3.34  O2

**For a gas, SI = log10(fugacity). Fugacity = pressure * phi / 1 atm.
  For ideal gases, phi = 1.

Reaction step 5.

Using solution 2.	
Using pure phase assemblage 1.	
Using temperature 1.	
Using pressure 1.	

----------------------------------User print-----------------------------------

 -1.0405e+01 
 -1.0405e+01 
  1.0178e+01 
  1.0178e+01 

-------------------------------Phase assemblage--------------------------------

                                                      Moles in assemblage
Phase               SI  log IAP  log K(T, P)   Initial       Final       Delta

Calcite           0.00   -10.40    -10.40    1.000e+01   1.000e+01  -1.405e-04

-----------------------------Solution composition------------------------------

	Elements           Molality       Moles

	C                 1.405e-04   1.405e-04
	Ca                1.405e-04   1.405e-04

----------------------------Description of solution----------------------------

                                       pH  =   7.590      Charge balance
                                       pe  =   2.801      Adjusted to redox equilibrium
      Specific Conductance (µS/cm, 150°C)  = 172
                          Density (g/cm³)  =   0.94310
                               Volume (L)  =   1.06035
                        Viscosity (mPa s)  =   0.19503
                        Activity of water  =   1.000
                 Ionic strength (mol/kgw)  =   4.173e-04
                       Mass of water (kg)  =   1.000e+00
                 Total alkalinity (eq/kg)  =   2.811e-04
                       Total CO2 (mol/kg)  =   1.405e-04
                         Temperature (°C)  = 150.00
                           Pressure (atm)  = 500.00
                  Electrical balance (eq)  =  -1.217e-09
 Percent error, 100*(Cat-|An|)/(Cat+|An|)  =  -0.00
                               Iterations  =  13
                                  Total H  = 1.110124e+02
                                  Total O  = 5.550664e+01

----------------------------Distribution of species----------------------------

                                               Log       Log       Log    mole V
   Species          Molality    Activity  Molality  Activity     Gamma   cm³/mol

   OH-             1.499e-04   1.455e-04    -3.824    -3.837    -0.013    -13.01
   H+              2.647e-08   2.571e-08    -7.577    -7.590    -0.013      0.00
   H2O             5.551e+01   1.000e+00     1.744    -0.000     0.000     19.10
C(-4)         0.000e+00
   CH4             0.000e+00   0.000e+00   -77.664   -77.664     0.000     44.75
C(4)          1.405e-04
   HCO3-           1.277e-04   1.239e-04    -3.894    -3.907    -0.013     21.45
   CO2             1.062e-05   1.062e-05    -4.974    -4.974     0.000     41.82
   CaHCO3+         1.014e-06   9.843e-07    -5.994    -6.007    -0.013     10.72
   CaCO3           9.014e-07   9.015e-07    -6.045    -6.045     0.000    -11.84
   CO3-2           3.606e-07   3.200e-07    -6.443    -6.495    -0.052    -12.07
   (CO2)2          1.579e-11   1.579e-11   -10.802   -10.802     0.000     83.64
Ca            1.405e-04
   Ca+2            1.386e-04   1.230e-04    -3.858    -3.910    -0.052    -19.49
   CaHCO3+         1.014e-06   9.843e-07    -5.994    -6.007    -0.013     10.72
   CaCO3           9.014e-07   9.015e-07    -6.045    -6.045     0.000    -11.84
   CaOH+           8.139e-10   7.897e-10    -9.089    -9.103    -0.013     (0)  
H(0)          6.462e-25
   H2              3.231e-25   3.231e-25   -24.491   -24.491     0.000     28.36
O(0)          9.968e-16
   O2              4.984e-16   4.985e-16   -15.302   -15.302     0.000     33.96

------------------------------Saturation indices-------------------------------

  Phase               SI** log IAP   log K(423 K, 500 atm)

  Aragonite        -0.74    -10.40   -9.67  CaCO3
  Calcite           0.00    -10.40  -10.40  CaCO3
  CH4(g)          -74.49    -77.66   -3.17  CH4
  CO2(g)           -2.64     -4.97   -2.33  CO2
  H2(g)           -21.33    -24.49   -3.16  H2
  H2O(g)            0.78     -0.00   -0.78  H2O
  O2(g)           -12.05    -15.30   -3.25  O2

**For a gas, SI = log10(fugacity). Fugacity = pressure * phi / 1 atm.
  For ideal gases, phi = 1.

Reaction step 6.

Using solution 2.	
Using pure phase assemblage 1.	
Using temperature 1.	
Using pressure 1.	

----------------------------------User print-----------------------------------

 -1.1752e+01 
 -1.1752e+01 
  1.0527e+01 
  1.0527e+01 

-------------------------------Phase assemblage--------------------------------

                                                      Moles in assemblage
Phase               SI  log IAP  log K(T, P)   Initial       Final       Delta

Calcite           0.00   -11.75    -11.75    1.000e+01   1.000e+01  -8.969e-05

-----------------------------Solution composition------------------------------

	Elements           Molality       Moles

	C                 8.969e-05   8.969e-05
	Ca                8.969e-05   8.969e-05

----------------------------Description of solution----------------------------

                                       pH  =   7.152      Charge balance
                                       pe  =   2.982      Adjusted to redox equilibrium
      Specific Conductance (µS/cm, 200°C)  = 144
                          Density (g/cm³)  =   0.89720
                               Volume (L)  =   1.11459
                        Viscosity (mPa s)  =   0.14431
                        Activity of water  =   1.000
                 Ionic strength (mol/kgw)  =   2.631e-04
                       Mass of water (kg)  =   1.000e+00
                 Total alkalinity (eq/kg)  =   1.794e-04
                       Total CO2 (mol/kg)  =   8.969e-05
                         Temperature (°C)  = 200.00
                           Pressure (atm)  = 500.00
                  Electrical balance (eq)  =  -1.217e-09
 Percent error, 100*(Cat-|An|)/(Cat+|An|)  =  -0.00
                               Iterations  =  13
                                  Total H  = 1.110124e+02
                                  Total O  = 5.550649e+01

----------------------------Distribution of species----------------------------

                                               Log       Log       Log    mole V
   Species          Molality    Activity  Molality  Activity     Gamma   cm³/mol

   OH-             1.208e-04   1.175e-04    -3.918    -3.930    -0.012    -22.33
   H+              7.235e-08   7.043e-08    -7.141    -7.152    -0.012      0.00
   H2O             5.551e+01   1.000e+00     1.744    -0.000     0.000     20.08
C(-4)         0.000e+00
   CH4             0.000e+00   0.000e+00   -79.309   -79.309     0.000     52.22
C(4)          8.969e-05
   HCO3-           5.556e-05   5.405e-05    -4.255    -4.267    -0.012     12.21
   CO2             3.107e-05   3.107e-05    -4.508    -4.508     0.000     49.59
   CaHCO3+         3.021e-06   2.939e-06    -5.520    -5.532    -0.012      9.40
   CO3-2           2.545e-08   2.280e-08    -7.594    -7.642    -0.048    -33.39
   CaCO3           1.558e-08   1.558e-08    -7.807    -7.807     0.000    -11.75
   (CO2)2          1.454e-10   1.454e-10    -9.837    -9.837     0.000     99.17
Ca            8.969e-05
   Ca+2            8.665e-05   7.761e-05    -4.062    -4.110    -0.048    -25.26
   CaHCO3+         3.021e-06   2.939e-06    -5.520    -5.532    -0.012      9.40
   CaCO3           1.558e-08   1.558e-08    -7.807    -7.807     0.000    -11.75
   CaOH+           1.759e-10   1.711e-10    -9.755    -9.767    -0.012     (0)  
H(0)          1.770e-24
   H2              8.851e-25   8.851e-25   -24.053   -24.053     0.000     28.35
O(0)          2.095e-09
   O2              1.047e-09   1.047e-09    -8.980    -8.980     0.000     36.14

------------------------------Saturation indices-------------------------------

  Phase               SI** log IAP   log K(473 K, 500 atm)

  Aragonite        -1.04    -11.75  -10.71  CaCO3
  Calcite           0.00    -11.75  -11.75  CaCO3
  CH4(g)          -76.27    -79.31   -3.04  CH4
  CO2(g)           -2.18     -4.51   -2.33  CO2
  H2(g)           -21.09    -24.05   -2.97  H2
  H2O(g)            1.26     -0.00   -1.26  H2O
  O2(g)            -5.91     -8.98   -3.07  O2

**For a gas, SI = log10(fugacity). Fugacity = pressure * phi / 1 atm.
  For ideal gases, phi = 1.

------------------
End of simulation.
------------------

------------------------------------
Reading input data for simulation 3.
------------------------------------

