WARNING: Database file from DATABASE keyword is used; command line argument ignored.
   Input file: MgCl2
  Output file: MgCl2.out
Database file: ../database/pitzer.dat

------------------
Reading data base.
------------------

	SOLUTION_MASTER_SPECIES
	SOLUTION_SPECIES
	PHASES
	PITZER
	EXCHANGE_MASTER_SPECIES
	EXCHANGE_SPECIES
	SURFACE_MASTER_SPECIES
	SURFACE_SPECIES
	END
------------------------------------
Reading input data for simulation 1.
------------------------------------

	DATABASE ../database/pitzer.dat
	PITZER
	b0
	  Mg+2  Cl-  0.351  0  0  -9.32e-4  5.94e-7
WARNING: Redefinition of parameter, Mg+2 Cl-

	b1
	  Mg+2  Cl-  1.65  0  0  -1.09e-2  2.60e-5
WARNING: Redefinition of parameter, Mg+2 Cl-

	c0
	  Mg+2  Cl-  0.00651  0  0  -2.50e-4  2.418e-7
WARNING: Redefinition of parameter, Mg+2 Cl-

	PHASES
	Bischofite
		MgCl2:6H2O  =  Mg+2 + 2 Cl- + 6 H2O
		log_k	   4.455
		analytical_expression  7.526  -1.114e-2  115.7
		Vm 127.1
	MgCl2_4H2O
		MgCl2:4H2O  =  Mg+2 + 2 Cl- + 4 H2O
		analytical_expression  12.98  -2.013e-2
	MgCl2_2H2O
		MgCl2:2H2O  =  Mg+2 + 2 Cl- + 2 H2O
		analytical_expression  -10.273  0  7.403e3
	SOLUTION 1
	REACTION_TEMPERATURE 
	0, 10, 15, 20, 25, 30, 35, 40, 50, 60, 70, 80, 90, 100, 116
	EQUILIBRIUM_PHASES
	Bischofite 0 300
	USER_GRAPH 1
	-chart_title "Mg-hydrates' solubility"
	-axis_titles "mol MgCl2 / kgw" "temperature / oC"
	-headings Bischofite
	10 data 5.586, 5.676, 5.721, 5.766, 5.811, 5.901, 5.946, 6.036, 6.261, 6.396, 6.667, 6.982, 7.342, 7.703, 9.009
	20 dim c(30)
	30 for i = 1 to 15
	40   read c(i)
	50 next i
	60 plot_xy tot("Mg"), tc, symbol_size = 0 color = Red
	70 plot_xy c(step_no), tc, line_width = 0, color = Red
	-end
	PRINT
	 status false
	END
-------------------------------------------
Beginning of initial solution calculations.
-------------------------------------------

Initial solution 1.	

-----------------------------Solution composition------------------------------

	Elements           Molality       Moles

	Pure water     

----------------------------Description of solution----------------------------

                                       pH  =   7.000    
                                       pe  =   4.000    
       Specific Conductance (uS/cm, 25 oC) = 0
                          Density (g/cm3)  =   0.99704
                               Volume (L)  =   1.00297
                        Activity of water  =   1.000
                           Ionic strength  =   1.004e-07
                       Mass of water (kg)  =   1.000e+00
                 Total alkalinity (eq/kg)  =   7.510e-10
                    Total carbon (mol/kg)  =   0.000e+00
                       Total CO2 (mol/kg)  =   0.000e+00
                      Temperature (deg C)  =  25.00
                  Electrical balance (eq)  =  -7.510e-10
 Percent error, 100*(Cat-|An|)/(Cat+|An|)  =  -0.37
                               Iterations  =   3
                         Gamma iterations  =   2
                      Osmotic coefficient  =   0.99988
                         Density of water  =   0.99704
                                  Total H  = 1.110124e+02
                                  Total O  = 5.550622e+01

----------------------------Distribution of species----------------------------

                                                    MacInnes  MacInnes
                                MacInnes       Log       Log       Log    mole V
   Species          Molality    Activity  Molality  Activity     Gamma   cm3/mol

   OH-             1.008e-07   1.008e-07    -6.997    -6.997    -0.000     -3.91
   H+              1.000e-07   1.000e-07    -7.000    -7.000    -0.000      0.00
   H2O             5.551e+01   1.000e+00     1.744    -0.000     0.000     18.07

------------------------------Saturation indices-------------------------------

	Phase               SI   log IAP   log K(298 K,   1 atm)

	H2O(g)           -1.50     -0.00    1.50  H2O


-----------------------------------------
Beginning of batch-reaction calculations.
-----------------------------------------

Reaction step 1.

Using solution 1.	
Using pure phase assemblage 1.	
Using temperature 1.	

-------------------------------Phase assemblage--------------------------------

                                                      Moles in assemblage
Phase               SI  log IAP  log K(T, P)   Initial       Final       Delta

Bischofite       -0.00     4.91      4.91    3.000e+02   2.861e+02  -1.393e+01

-----------------------------Solution composition------------------------------

	Elements           Molality       Moles

	Cl                1.112e+01   2.787e+01
	Mg                5.560e+00   1.393e+01

----------------------------Description of solution----------------------------

                                       pH  =   2.931      Charge balance
                                       pe  =   4.000      Adjusted to redox equilibrium
       Specific Conductance (uS/cm, 0 oC) = 720605
                          Density (g/cm3)  =   1.32082
                               Volume (L)  =   2.90172
                        Activity of water  =   0.325
                           Ionic strength  =   1.668e+01
                       Mass of water (kg)  =   2.506e+00
                 Total alkalinity (eq/kg)  =   2.997e-10
                    Total carbon (mol/kg)  =   0.000e+00
                       Total CO2 (mol/kg)  =   0.000e+00
                      Temperature (deg C)  =   0.00
                  Electrical balance (eq)  =  -2.542e-08
 Percent error, 100*(Cat-|An|)/(Cat+|An|)  =  -0.00
                               Iterations  =  51
                         Gamma iterations  =  12
                      Osmotic coefficient  =   3.73590
                         Density of water  =   0.99984
                                  Total H  = 2.782060e+02
                                  Total O  = 1.391030e+02

----------------------------Distribution of species----------------------------

                                                    MacInnes  MacInnes
                                MacInnes       Log       Log       Log    mole V
   Species          Molality    Activity  Molality  Activity     Gamma   cm3/mol

   H+              1.691e-06   1.173e-03    -5.772    -2.931     2.841      0.00
   OH-             1.349e-10   3.106e-13    -9.870   -12.508    -2.638     11.95
   H2O             5.551e+01   3.255e-01     1.744    -0.488     0.000     18.02
Cl            1.112e+01
   Cl-             1.112e+01   1.144e+01     1.046     1.059     0.012     21.41
Mg            5.560e+00
   Mg+2            5.560e+00   1.000e+03     0.745     5.715     4.970    -14.44
   MgOH+           1.691e-06   2.062e-05    -5.772    -4.686     1.086     (0)  

------------------------------Saturation indices-------------------------------

	Phase               SI   log IAP   log K(273 K,   1 atm)

	Bischofite       -0.00      4.91    4.91  MgCl2:6H2O
	Brucite          -8.10    -19.30  -11.21  Mg(OH)2
	H2O(g)           -2.70     -0.49    2.21  H2O
	MgCl2_2H2O       -9.97      6.86   16.83  MgCl2:2H2O
	MgCl2_4H2O       -1.60      5.88    7.48  MgCl2:4H2O


Reaction step 2.

Using solution 1.	
Using pure phase assemblage 1.	
Using temperature 1.	

-------------------------------Phase assemblage--------------------------------

                                                      Moles in assemblage
Phase               SI  log IAP  log K(T, P)   Initial       Final       Delta

Bischofite        0.00     4.78      4.78    3.000e+02   2.854e+02  -1.460e+01

-----------------------------Solution composition------------------------------

	Elements           Molality       Moles

	Cl                1.133e+01   2.921e+01
	Mg                5.664e+00   1.460e+01

----------------------------Description of solution----------------------------

                                       pH  =   2.760      Charge balance
                                       pe  =   4.000      Adjusted to redox equilibrium
       Specific Conductance (uS/cm, 10 oC) = 999202
                          Density (g/cm3)  =   1.32044
                               Volume (L)  =   3.00602
                        Activity of water  =   0.324
                           Ionic strength  =   1.699e+01
                       Mass of water (kg)  =   2.579e+00
                 Total alkalinity (eq/kg)  =   2.912e-10
                    Total carbon (mol/kg)  =   0.000e+00
                       Total CO2 (mol/kg)  =   0.000e+00
                      Temperature (deg C)  =  10.00
                  Electrical balance (eq)  =  -7.223e-09
 Percent error, 100*(Cat-|An|)/(Cat+|An|)  =  -0.00
                               Iterations  =  50
                         Gamma iterations  =  12
                      Osmotic coefficient  =   3.68342
                         Density of water  =   0.99970
                                  Total H  = 2.862704e+02
                                  Total O  = 1.431352e+02

----------------------------Distribution of species----------------------------

                                                    MacInnes  MacInnes
                                MacInnes       Log       Log       Log    mole V
   Species          Molality    Activity  Molality  Activity     Gamma   cm3/mol

   H+              2.573e-06   1.739e-03    -5.590    -2.760     2.830      0.00
   OH-             2.383e-10   5.386e-13    -9.623   -12.269    -2.646     13.87
   H2O             5.551e+01   3.239e-01     1.744    -0.490     0.000     18.02
Cl            1.133e+01
   Cl-             1.133e+01   1.148e+01     1.054     1.060     0.006     21.32
Mg            5.664e+00
   Mg+2            5.664e+00   1.000e+03     0.753     5.599     4.845    -13.43
   MgOH+           2.573e-06   2.890e-05    -5.590    -4.539     1.050     (0)  

------------------------------Saturation indices-------------------------------

	Phase               SI   log IAP   log K(283 K,   1 atm)

	Bischofite        0.00      4.78    4.78  MgCl2:6H2O
	Brucite          -7.87    -18.94  -11.07  Mg(OH)2
	H2O(g)           -2.40     -0.49    1.91  H2O
	MgCl2_2H2O       -9.13      6.74   15.87  MgCl2:2H2O
	MgCl2_4H2O       -1.52      5.76    7.28  MgCl2:4H2O


Reaction step 3.

Using solution 1.	
Using pure phase assemblage 1.	
Using temperature 1.	

-------------------------------Phase assemblage--------------------------------

                                                      Moles in assemblage
Phase               SI  log IAP  log K(T, P)   Initial       Final       Delta

Bischofite       -0.00     4.72      4.72    3.000e+02   2.850e+02  -1.499e+01

-----------------------------Solution composition------------------------------

	Elements           Molality       Moles

	Cl                1.144e+01   2.997e+01
	Mg                5.720e+00   1.499e+01

----------------------------Description of solution----------------------------

                                       pH  =   2.677      Charge balance
                                       pe  =   4.000      Adjusted to redox equilibrium
       Specific Conductance (uS/cm, 15 oC) = 1156980
                          Density (g/cm3)  =   1.32113
                               Volume (L)  =   3.06320
                        Activity of water  =   0.323
                           Ionic strength  =   1.716e+01
                       Mass of water (kg)  =   2.620e+00
                 Total alkalinity (eq/kg)  =   2.866e-10
                    Total carbon (mol/kg)  =   0.000e+00
                       Total CO2 (mol/kg)  =   0.000e+00
                      Temperature (deg C)  =  15.00
                  Electrical balance (eq)  =  -5.211e-09
 Percent error, 100*(Cat-|An|)/(Cat+|An|)  =  -0.00
                               Iterations  =  50
                         Gamma iterations  =  12
                      Osmotic coefficient  =   3.65872
                         Density of water  =   0.99910
                                  Total H  = 2.908521e+02
                                  Total O  = 1.454260e+02

----------------------------Distribution of species----------------------------

                                                    MacInnes  MacInnes
                                MacInnes       Log       Log       Log    mole V
   Species          Molality    Activity  Molality  Activity     Gamma   cm3/mol

   H+              3.131e-06   2.105e-03    -5.504    -2.677     2.827      0.00
   OH-             3.094e-10   6.870e-13    -9.510   -12.163    -2.654     14.64
   H2O             5.551e+01   3.227e-01     1.744    -0.491     0.000     18.03
Cl            1.144e+01
   Cl-             1.144e+01   1.146e+01     1.058     1.059     0.001     21.29
Mg            5.720e+00
   Mg+2            5.720e+00   1.000e+03     0.757     5.546     4.789    -13.16
   MgOH+           3.131e-06   3.394e-05    -5.504    -4.469     1.035     (0)  

------------------------------Saturation indices-------------------------------

	Phase               SI   log IAP   log K(288 K,   1 atm)

	Bischofite       -0.00      4.72    4.72  MgCl2:6H2O
	Brucite          -7.78    -18.78  -11.00  Mg(OH)2
	H2O(g)           -2.26     -0.49    1.77  H2O
	MgCl2_2H2O       -8.74      6.68   15.42  MgCl2:2H2O
	MgCl2_4H2O       -1.48      5.70    7.18  MgCl2:4H2O


Reaction step 4.

Using solution 1.	
Using pure phase assemblage 1.	
Using temperature 1.	

-------------------------------Phase assemblage--------------------------------

                                                      Moles in assemblage
Phase               SI  log IAP  log K(T, P)   Initial       Final       Delta

Bischofite       -0.00     4.65      4.65    3.000e+02   2.846e+02  -1.540e+01

-----------------------------Solution composition------------------------------

	Elements           Molality       Moles

	Cl                1.156e+01   3.081e+01
	Mg                5.780e+00   1.540e+01

----------------------------Description of solution----------------------------

                                       pH  =   2.595      Charge balance
                                       pe  =   4.000      Adjusted to redox equilibrium
       Specific Conductance (uS/cm, 20 oC) = 1288754
                          Density (g/cm3)  =   1.32228
                               Volume (L)  =   3.12477
                        Activity of water  =   0.321
                           Ionic strength  =   1.734e+01
                       Mass of water (kg)  =   2.665e+00
                 Total alkalinity (eq/kg)  =   2.818e-10
                    Total carbon (mol/kg)  =   0.000e+00
                       Total CO2 (mol/kg)  =   0.000e+00
                      Temperature (deg C)  =  20.00
                  Electrical balance (eq)  =  -5.741e-08
 Percent error, 100*(Cat-|An|)/(Cat+|An|)  =  -0.00
                               Iterations  =  53
                         Gamma iterations  =  12
                      Osmotic coefficient  =   3.63511
                         Density of water  =   0.99820
                                  Total H  = 2.958647e+02
                                  Total O  = 1.479323e+02

----------------------------Distribution of species----------------------------

                                                    MacInnes  MacInnes
                                MacInnes       Log       Log       Log    mole V
   Species          Molality    Activity  Molality  Activity     Gamma   cm3/mol

   H+              3.777e-06   2.541e-03    -5.423    -2.595     2.828      0.00
   OH-             3.957e-10   8.584e-13    -9.403   -12.066    -2.664     15.31
   H2O             5.551e+01   3.212e-01     1.744    -0.493     0.000     18.05
Cl            1.156e+01
   Cl-             1.156e+01   1.142e+01     1.063     1.058    -0.005     21.26
Mg            5.780e+00
   Mg+2            5.780e+00   1.000e+03     0.762     5.499     4.737    -12.99
   MgOH+           3.777e-06   3.968e-05    -5.423    -4.401     1.021     (0)  

------------------------------Saturation indices-------------------------------

	Phase               SI   log IAP   log K(293 K,   1 atm)

	Bischofite       -0.00      4.65    4.65  MgCl2:6H2O
	Brucite          -7.69    -18.63  -10.94  Mg(OH)2
	H2O(g)           -2.13     -0.49    1.63  H2O
	MgCl2_2H2O       -8.35      6.63   14.98  MgCl2:2H2O
	MgCl2_4H2O       -1.44      5.64    7.08  MgCl2:4H2O


Reaction step 5.

Using solution 1.	
Using pure phase assemblage 1.	
Using temperature 1.	

-------------------------------Phase assemblage--------------------------------

                                                      Moles in assemblage
Phase               SI  log IAP  log K(T, P)   Initial       Final       Delta

Bischofite        0.00     4.59      4.59    3.000e+02   2.841e+02  -1.592e+01

-----------------------------Solution composition------------------------------

	Elements           Molality       Moles

	Cl                1.170e+01   3.184e+01
	Mg                5.851e+00   1.592e+01

----------------------------Description of solution----------------------------

                                       pH  =   2.510      Charge balance
                                       pe  =   4.000      Adjusted to redox equilibrium
       Specific Conductance (uS/cm, 25 oC) = 1405840
                          Density (g/cm3)  =   1.32413
                               Volume (L)  =   3.19950
                        Activity of water  =   0.319
                           Ionic strength  =   1.755e+01
                       Mass of water (kg)  =   2.721e+00
                 Total alkalinity (eq/kg)  =   2.760e-10
                    Total carbon (mol/kg)  =   0.000e+00
                       Total CO2 (mol/kg)  =   0.000e+00
                      Temperature (deg C)  =  25.00
                  Electrical balance (eq)  =  -8.383e-10
 Percent error, 100*(Cat-|An|)/(Cat+|An|)  =  -0.00
                               Iterations  =  57
                         Gamma iterations  =  12
                      Osmotic coefficient  =   3.61649
                         Density of water  =   0.99704
                                  Total H  = 3.020458e+02
                                  Total O  = 1.510229e+02

----------------------------Distribution of species----------------------------

                                                    MacInnes  MacInnes
                                MacInnes       Log       Log       Log    mole V
   Species          Molality    Activity  Molality  Activity     Gamma   cm3/mol

   H+              4.521e-06   3.088e-03    -5.345    -2.510     2.834      0.00
   OH-             4.980e-10   1.040e-12    -9.303   -11.983    -2.680     15.93
   H2O             5.551e+01   3.187e-01     1.744    -0.497     0.000     18.07
Cl            1.170e+01
   Cl-             1.170e+01   1.135e+01     1.068     1.055    -0.013     21.23
Mg            5.851e+00
   Mg+2            5.851e+00   1.000e+03     0.767     5.462     4.695    -12.90
   MgOH+           4.521e-06   4.645e-05    -5.345    -4.333     1.012     (0)  

------------------------------Saturation indices-------------------------------

	Phase               SI   log IAP   log K(298 K,   1 atm)

	Bischofite        0.00      4.59    4.59  MgCl2:6H2O
	Brucite          -7.62    -18.50  -10.88  Mg(OH)2
	H2O(g)           -2.00     -0.50    1.50  H2O
	MgCl2_2H2O       -7.98      6.58   14.56  MgCl2:2H2O
	MgCl2_4H2O       -1.39      5.59    6.98  MgCl2:4H2O


Reaction step 6.

Using solution 1.	
Using pure phase assemblage 1.	
Using temperature 1.	

-------------------------------Phase assemblage--------------------------------

                                                      Moles in assemblage
Phase               SI  log IAP  log K(T, P)   Initial       Final       Delta

Bischofite        0.00     4.53      4.53    3.000e+02   2.836e+02  -1.637e+01

-----------------------------Solution composition------------------------------

	Elements           Molality       Moles

	Cl                1.182e+01   3.274e+01
	Mg                5.911e+00   1.637e+01

----------------------------Description of solution----------------------------

                                       pH  =   2.433      Charge balance
                                       pe  =   4.000      Adjusted to redox equilibrium
       Specific Conductance (uS/cm, 30 oC) = 1516514
                          Density (g/cm3)  =   1.32566
                               Volume (L)  =   3.26466
                        Activity of water  =   0.318
                           Ionic strength  =   1.773e+01
                       Mass of water (kg)  =   2.769e+00
                 Total alkalinity (eq/kg)  =   2.712e-10
                    Total carbon (mol/kg)  =   0.000e+00
                       Total CO2 (mol/kg)  =   0.000e+00
                      Temperature (deg C)  =  30.00
                  Electrical balance (eq)  =  -6.013e-08
 Percent error, 100*(Cat-|An|)/(Cat+|An|)  =  -0.00
                               Iterations  =  69
                         Gamma iterations  =  14
                      Osmotic coefficient  =   3.59132
                         Density of water  =   0.99564
                                  Total H  = 3.074347e+02
                                  Total O  = 1.537173e+02

----------------------------Distribution of species----------------------------

                                                    MacInnes  MacInnes
                                MacInnes       Log       Log       Log    mole V
   Species          Molality    Activity  Molality  Activity     Gamma   cm3/mol

   H+              5.364e-06   3.689e-03    -5.270    -2.433     2.837      0.00
   OH-             6.211e-10   1.261e-12    -9.207   -11.899    -2.692     16.49
   H2O             5.551e+01   3.175e-01     1.744    -0.498     0.000     18.09
Cl            1.182e+01
   Cl-             1.182e+01   1.125e+01     1.073     1.051    -0.021     21.21
Mg            5.911e+00
   Mg+2            5.911e+00   1.000e+03     0.772     5.417     4.646    -12.90
   MgOH+           5.364e-06   5.368e-05    -5.271    -4.270     1.000     (0)  

------------------------------Saturation indices-------------------------------

	Phase               SI   log IAP   log K(303 K,   1 atm)

	Bischofite        0.00      4.53    4.53  MgCl2:6H2O
	Brucite          -7.56    -18.38  -10.82  Mg(OH)2
	H2O(g)           -1.88     -0.50    1.38  H2O
	MgCl2_2H2O       -7.62      6.52   14.15  MgCl2:2H2O
	MgCl2_4H2O       -1.35      5.53    6.88  MgCl2:4H2O


Reaction step 7.

Using solution 1.	
Using pure phase assemblage 1.	
Using temperature 1.	

-------------------------------Phase assemblage--------------------------------

                                                      Moles in assemblage
Phase               SI  log IAP  log K(T, P)   Initial       Final       Delta

Bischofite        0.00     4.47      4.47    3.000e+02   2.831e+02  -1.693e+01

-----------------------------Solution composition------------------------------

	Elements           Molality       Moles

	Cl                1.196e+01   3.386e+01
	Mg                5.982e+00   1.693e+01

----------------------------Description of solution----------------------------

                                       pH  =   2.352      Charge balance
                                       pe  =   4.000      Adjusted to redox equilibrium
       Specific Conductance (uS/cm, 35 oC) = 1612334
                          Density (g/cm3)  =   1.32786
                               Volume (L)  =   3.34496
                        Activity of water  =   0.315
                           Ionic strength  =   1.795e+01
                       Mass of water (kg)  =   2.830e+00
                 Total alkalinity (eq/kg)  =   2.654e-10
                    Total carbon (mol/kg)  =   0.000e+00
                       Total CO2 (mol/kg)  =   0.000e+00
                      Temperature (deg C)  =  35.00
                  Electrical balance (eq)  =  -7.834e-10
 Percent error, 100*(Cat-|An|)/(Cat+|An|)  =  -0.00
                               Iterations  =  46
                         Gamma iterations  =  11
                      Osmotic coefficient  =   3.57127
                         Density of water  =   0.99403
                                  Total H  = 3.141528e+02
                                  Total O  = 1.570764e+02

----------------------------Distribution of species----------------------------

                                                    MacInnes  MacInnes
                                MacInnes       Log       Log       Log    mole V
   Species          Molality    Activity  Molality  Activity     Gamma   cm3/mol

   H+              6.318e-06   4.443e-03    -5.199    -2.352     2.847      0.00
   OH-             7.631e-10   1.484e-12    -9.117   -11.829    -2.711     17.00
   H2O             5.551e+01   3.152e-01     1.744    -0.501     0.000     18.12
Cl            1.196e+01
   Cl-             1.196e+01   1.112e+01     1.078     1.046    -0.032     21.19
Mg            5.982e+00
   Mg+2            5.982e+00   1.000e+03     0.777     5.385     4.608    -12.95
   MgOH+           6.317e-06   6.220e-05    -5.199    -4.206     0.993     (0)  

------------------------------Saturation indices-------------------------------

	Phase               SI   log IAP   log K(308 K,   1 atm)

	Bischofite        0.00      4.47    4.47  MgCl2:6H2O
	Brucite          -7.51    -18.27  -10.76  Mg(OH)2
	H2O(g)           -1.76     -0.50    1.26  H2O
	MgCl2_2H2O       -7.28      6.47   13.75  MgCl2:2H2O
	MgCl2_4H2O       -1.31      5.47    6.78  MgCl2:4H2O


Reaction step 8.

Using solution 1.	
Using pure phase assemblage 1.	
Using temperature 1.	

-------------------------------Phase assemblage--------------------------------

                                                      Moles in assemblage
Phase               SI  log IAP  log K(T, P)   Initial       Final       Delta

Bischofite        0.00     4.41      4.41    3.000e+02   2.824e+02  -1.755e+01

-----------------------------Solution composition------------------------------

	Elements           Molality       Moles

	Cl                1.212e+01   3.510e+01
	Mg                6.058e+00   1.755e+01

----------------------------Description of solution----------------------------

                                       pH  =   2.271      Charge balance
                                       pe  =   4.000      Adjusted to redox equilibrium
       Specific Conductance (uS/cm, 40 oC) = 1693522
                          Density (g/cm3)  =   1.33034
                               Volume (L)  =   3.43399
                        Activity of water  =   0.313
                           Ionic strength  =   1.817e+01
                       Mass of water (kg)  =   2.897e+00
                 Total alkalinity (eq/kg)  =   2.592e-10
                    Total carbon (mol/kg)  =   0.000e+00
                       Total CO2 (mol/kg)  =   0.000e+00
                      Temperature (deg C)  =  40.00
                  Electrical balance (eq)  =  -8.414e-09
 Percent error, 100*(Cat-|An|)/(Cat+|An|)  =  -0.00
                               Iterations  =  50
                         Gamma iterations  =  12
                      Osmotic coefficient  =   3.55256
                         Density of water  =   0.99221
                                  Total H  = 3.216320e+02
                                  Total O  = 1.608160e+02

----------------------------Distribution of species----------------------------

                                                    MacInnes  MacInnes
                                MacInnes       Log       Log       Log    mole V
   Species          Molality    Activity  Molality  Activity     Gamma   cm3/mol

   H+              7.383e-06   5.359e-03    -5.132    -2.271     2.861      0.00
   OH-             9.263e-10   1.710e-12    -9.033   -11.767    -2.734     17.50
   H2O             5.551e+01   3.125e-01     1.744    -0.505     0.000     18.16
Cl            1.212e+01
   Cl-             1.212e+01   1.095e+01     1.083     1.039    -0.044     21.17
Mg            6.058e+00
   Mg+2            6.058e+00   1.000e+03     0.782     5.359     4.577    -13.05
   MgOH+           7.383e-06   7.199e-05    -5.132    -4.143     0.989     (0)  

------------------------------Saturation indices-------------------------------

	Phase               SI   log IAP   log K(313 K,   1 atm)

	Bischofite        0.00      4.41    4.41  MgCl2:6H2O
	Brucite          -7.46    -18.17  -10.71  Mg(OH)2
	H2O(g)           -1.64     -0.51    1.14  H2O
	MgCl2_2H2O       -6.94      6.43   13.37  MgCl2:2H2O
	MgCl2_4H2O       -1.26      5.42    6.68  MgCl2:4H2O


Reaction step 9.

Using solution 1.	
Using pure phase assemblage 1.	
Using temperature 1.	

-------------------------------Phase assemblage--------------------------------

                                                      Moles in assemblage
Phase               SI  log IAP  log K(T, P)   Initial       Final       Delta

Bischofite       -0.00     4.28      4.28    3.000e+02   2.810e+02  -1.904e+01

-----------------------------Solution composition------------------------------

	Elements           Molality       Moles

	Cl                1.245e+01   3.807e+01
	Mg                6.226e+00   1.904e+01

----------------------------Description of solution----------------------------

                                       pH  =   2.105      Charge balance
                                       pe  =   4.000      Adjusted to redox equilibrium
       Specific Conductance (uS/cm, 50 oC) = 1810857
                          Density (g/cm3)  =   1.33629
                               Volume (L)  =   3.64473
                        Activity of water  =   0.306
                           Ionic strength  =   1.868e+01
                       Mass of water (kg)  =   3.058e+00
                 Total alkalinity (eq/kg)  =   2.456e-10
                    Total carbon (mol/kg)  =   0.000e+00
                       Total CO2 (mol/kg)  =   0.000e+00
                      Temperature (deg C)  =  50.00
                  Electrical balance (eq)  =  -8.140e-10
 Percent error, 100*(Cat-|An|)/(Cat+|An|)  =  -0.00
                               Iterations  =  48
                         Gamma iterations  =  11
                      Osmotic coefficient  =   3.51959
                         Density of water  =   0.98803
                                  Total H  = 3.394606e+02
                                  Total O  = 1.697303e+02

----------------------------Distribution of species----------------------------

                                                    MacInnes  MacInnes
                                MacInnes       Log       Log       Log    mole V
   Species          Molality    Activity  Molality  Activity     Gamma   cm3/mol

   H+              9.860e-06   7.860e-03    -5.006    -2.105     2.902      0.00
   OH-             1.318e-09   2.136e-12    -8.880   -11.670    -2.790     18.43
   H2O             5.551e+01   3.060e-01     1.744    -0.514     0.000     18.23
Cl            1.245e+01
   Cl-             1.245e+01   1.049e+01     1.095     1.021    -0.075     21.13
Mg            6.226e+00
   Mg+2            6.226e+00   1.000e+03     0.794     5.329     4.535    -13.38
   MgOH+           9.859e-06   9.645e-05    -5.006    -4.016     0.990     (0)  

------------------------------Saturation indices-------------------------------

	Phase               SI   log IAP   log K(323 K,   1 atm)

	Bischofite       -0.00      4.28    4.28  MgCl2:6H2O
	Brucite          -7.41    -18.01  -10.60  Mg(OH)2
	H2O(g)           -1.43     -0.51    0.92  H2O
	MgCl2_2H2O       -6.29      6.34   12.64  MgCl2:2H2O
	MgCl2_4H2O       -1.16      5.31    6.47  MgCl2:4H2O


Reaction step 10.

Using solution 1.	
Using pure phase assemblage 1.	
Using temperature 1.	

-------------------------------Phase assemblage--------------------------------

                                                      Moles in assemblage
Phase               SI  log IAP  log K(T, P)   Initial       Final       Delta

Bischofite        0.00     4.16      4.16    3.000e+02   2.790e+02  -2.096e+01

-----------------------------Solution composition------------------------------

	Elements           Molality       Moles

	Cl                1.284e+01   4.193e+01
	Mg                6.419e+00   2.096e+01

----------------------------Description of solution----------------------------

                                       pH  =   1.929      Charge balance
                                       pe  =   4.000      Adjusted to redox equilibrium
       Specific Conductance (uS/cm, 60 oC) = 1880953
                          Density (g/cm3)  =   1.34352
                               Volume (L)  =   3.91649
                        Activity of water  =   0.298
                           Ionic strength  =   1.926e+01
                       Mass of water (kg)  =   3.266e+00
                 Total alkalinity (eq/kg)  =   2.299e-10
                    Total carbon (mol/kg)  =   0.000e+00
                       Total CO2 (mol/kg)  =   0.000e+00
                      Temperature (deg C)  =  60.00
                  Electrical balance (eq)  =  -7.804e-10
 Percent error, 100*(Cat-|An|)/(Cat+|An|)  =  -0.00
                               Iterations  =  43
                         Gamma iterations  =  11
                      Osmotic coefficient  =   3.49358
                         Density of water  =   0.98319
                                  Total H  = 3.625661e+02
                                  Total O  = 1.812830e+02

----------------------------Distribution of species----------------------------

                                                    MacInnes  MacInnes
                                MacInnes       Log       Log       Log    mole V
   Species          Molality    Activity  Molality  Activity     Gamma   cm3/mol

   H+              1.278e-05   1.177e-02    -4.893    -1.929     2.964      0.00
   OH-             1.793e-09   2.442e-12    -8.746   -11.612    -2.866     19.35
   H2O             5.551e+01   2.976e-01     1.744    -0.526     0.000     18.32
Cl            1.284e+01
   Cl-             1.284e+01   9.843e+00     1.108     0.993    -0.115     21.11
Mg            6.419e+00
   Mg+2            6.418e+00   1.000e+03     0.807     5.334     4.526    -13.85
   MgOH+           1.278e-05   1.303e-04    -4.894    -3.885     1.008     (0)  

------------------------------Saturation indices-------------------------------

	Phase               SI   log IAP   log K(333 K,   1 atm)

	Bischofite        0.00      4.16    4.16  MgCl2:6H2O
	Brucite          -7.38    -17.89  -10.51  Mg(OH)2
	H2O(g)           -1.23     -0.53    0.71  H2O
	MgCl2_2H2O       -5.68      6.27   11.95  MgCl2:2H2O
	MgCl2_4H2O       -1.06      5.21    6.27  MgCl2:4H2O


Reaction step 11.

Using solution 1.	
Using pure phase assemblage 1.	
Using temperature 1.	

-------------------------------Phase assemblage--------------------------------

                                                      Moles in assemblage
Phase               SI  log IAP  log K(T, P)   Initial       Final       Delta

Bischofite        0.00     4.04      4.04    3.000e+02   2.764e+02  -2.357e+01

-----------------------------Solution composition------------------------------

	Elements           Molality       Moles

	Cl                1.329e+01   4.714e+01
	Mg                6.644e+00   2.357e+01

----------------------------Description of solution----------------------------

                                       pH  =   1.738      Charge balance
                                       pe  =   4.000      Adjusted to redox equilibrium
       Specific Conductance (uS/cm, 70 oC) = 1940806
                          Density (g/cm3)  =   1.35228
                               Volume (L)  =   4.28332
                        Activity of water  =   0.287
                           Ionic strength  =   1.993e+01
                       Mass of water (kg)  =   3.548e+00
                 Total alkalinity (eq/kg)  =   2.117e-10
                    Total carbon (mol/kg)  =   0.000e+00
                       Total CO2 (mol/kg)  =   0.000e+00
                      Temperature (deg C)  =  70.00
                  Electrical balance (eq)  =  -4.241e-08
 Percent error, 100*(Cat-|An|)/(Cat+|An|)  =  -0.00
                               Iterations  =  74
                         Gamma iterations  =  15
                      Osmotic coefficient  =   3.47641
                         Density of water  =   0.97776
                                  Total H  = 3.938712e+02
                                  Total O  = 1.969356e+02

----------------------------Distribution of species----------------------------

                                                    MacInnes  MacInnes
                                MacInnes       Log       Log       Log    mole V
   Species          Molality    Activity  Molality  Activity     Gamma   cm3/mol

   H+              1.606e-05   1.829e-02    -4.794    -1.738     3.056      0.00
   OH-             2.335e-09   2.525e-12    -8.632   -11.598    -2.966     20.30
   H2O             5.551e+01   2.870e-01     1.744    -0.542     0.000     18.43
Cl            1.329e+01
   Cl-             1.329e+01   8.990e+00     1.123     0.954    -0.170     21.11
Mg            6.644e+00
   Mg+2            6.644e+00   1.000e+03     0.822     5.386     4.563    -14.44
   MgOH+           1.606e-05   1.796e-04    -4.794    -3.746     1.049     (0)  

------------------------------Saturation indices-------------------------------

	Phase               SI   log IAP   log K(343 K,   1 atm)

	Bischofite        0.00      4.04    4.04  MgCl2:6H2O
	Brucite          -7.40    -17.81  -10.41  Mg(OH)2
	H2O(g)           -1.06     -0.54    0.51  H2O
	MgCl2_2H2O       -5.09      6.21   11.30  MgCl2:2H2O
	MgCl2_4H2O       -0.95      5.12    6.07  MgCl2:4H2O


Reaction step 12.

Using solution 1.	
Using pure phase assemblage 1.	
Using temperature 1.	

-------------------------------Phase assemblage--------------------------------

                                                      Moles in assemblage
Phase               SI  log IAP  log K(T, P)   Initial       Final       Delta

Bischofite       -0.00     3.92      3.92    3.000e+02   2.727e+02  -2.735e+01

-----------------------------Solution composition------------------------------

	Elements           Molality       Moles

	Cl                1.383e+01   5.470e+01
	Mg                6.913e+00   2.735e+01

----------------------------Description of solution----------------------------

                                       pH  =   1.520      Charge balance
                                       pe  =   4.000      Adjusted to redox equilibrium
       Specific Conductance (uS/cm, 80 oC) = 2044966
                          Density (g/cm3)  =   1.36298
                               Volume (L)  =   4.81314
                        Activity of water  =   0.273
                           Ionic strength  =   2.074e+01
                       Mass of water (kg)  =   3.956e+00
                 Total alkalinity (eq/kg)  =   1.898e-10
                    Total carbon (mol/kg)  =   0.000e+00
                       Total CO2 (mol/kg)  =   0.000e+00
                      Temperature (deg C)  =  80.00
                  Electrical balance (eq)  =   1.330e-08
 Percent error, 100*(Cat-|An|)/(Cat+|An|)  =   0.00
                               Iterations  =  79
                         Gamma iterations  =  16
                      Osmotic coefficient  =   3.47128
                         Density of water  =   0.97179
                                  Total H  = 4.391985e+02
                                  Total O  = 2.195992e+02

----------------------------Distribution of species----------------------------

                                                    MacInnes  MacInnes
                                MacInnes       Log       Log       Log    mole V
   Species          Molality    Activity  Molality  Activity     Gamma   cm3/mol

   H+              1.952e-05   3.019e-02    -4.710    -1.520     3.189      0.00
   OH-             2.903e-09   2.311e-12    -8.537   -11.636    -3.099     21.34
   H2O             5.551e+01   2.734e-01     1.744    -0.563     0.000     18.54
Cl            1.383e+01
   Cl-             1.383e+01   7.905e+00     1.141     0.898    -0.243     21.13
Mg            6.913e+00
   Mg+2            6.913e+00   1.000e+03     0.840     5.503     4.663    -15.14
   MgOH+           1.952e-05   2.578e-04    -4.710    -3.589     1.121     (0)  

------------------------------Saturation indices-------------------------------

	Phase               SI   log IAP   log K(353 K,   1 atm)

	Bischofite       -0.00      3.92    3.92  MgCl2:6H2O
	Brucite          -7.44    -17.77  -10.33  Mg(OH)2
	H2O(g)           -0.90     -0.56    0.33  H2O
	MgCl2_2H2O       -4.52      6.17   10.69  MgCl2:2H2O
	MgCl2_4H2O       -0.83      5.05    5.87  MgCl2:4H2O


Reaction step 13.

Using solution 1.	
Using pure phase assemblage 1.	
Using temperature 1.	

-------------------------------Phase assemblage--------------------------------

                                                      Moles in assemblage
Phase               SI  log IAP  log K(T, P)   Initial       Final       Delta

Bischofite       -0.00     3.80      3.80    3.000e+02   2.666e+02  -3.345e+01

-----------------------------Solution composition------------------------------

	Elements           Molality       Moles

	Cl                1.449e+01   6.690e+01
	Mg                7.247e+00   3.345e+01

----------------------------Description of solution----------------------------

                                       pH  =   1.258      Charge balance
                                       pe  =   4.000      Adjusted to redox equilibrium
       Specific Conductance (uS/cm, 90 oC) = 2247479
                          Density (g/cm3)  =   1.37636
                               Volume (L)  =   5.66746
                        Activity of water  =   0.255
                           Ionic strength  =   2.174e+01
                       Mass of water (kg)  =   4.616e+00
                 Total alkalinity (eq/kg)  =   1.627e-10
                    Total carbon (mol/kg)  =   0.000e+00
                       Total CO2 (mol/kg)  =   0.000e+00
                      Temperature (deg C)  =  90.00
                  Electrical balance (eq)  =  -1.836e-07
 Percent error, 100*(Cat-|An|)/(Cat+|An|)  =  -0.00
                               Iterations  =  48
                         Gamma iterations  =  12
                      Osmotic coefficient  =   3.48430
                         Density of water  =   0.96531
                                  Total H  = 5.124038e+02
                                  Total O  = 2.562019e+02

----------------------------Distribution of species----------------------------

                                                    MacInnes  MacInnes
                                MacInnes       Log       Log       Log    mole V
   Species          Molality    Activity  Molality  Activity     Gamma   cm3/mol

   H+              2.279e-05   5.517e-02    -4.642    -1.258     3.384      0.00
   OH-             3.423e-09   1.792e-12    -8.466   -11.747    -3.281     22.58
   H2O             5.551e+01   2.555e-01     1.744    -0.593     0.000     18.66
Cl            1.449e+01
   Cl-             1.449e+01   6.565e+00     1.161     0.817    -0.344     21.21
Mg            7.247e+00
   Mg+2            7.247e+00   1.000e+03     0.860     5.721     4.860    -15.93
   MgOH+           2.279e-05   3.982e-04    -4.642    -3.400     1.242     (0)  

------------------------------Saturation indices-------------------------------

	Phase               SI   log IAP   log K(363 K,   1 atm)

	Bischofite       -0.00      3.80    3.80  MgCl2:6H2O
	Brucite          -7.53    -17.77  -10.24  Mg(OH)2
	H2O(g)           -0.76     -0.59    0.16  H2O
	MgCl2_2H2O       -3.94      6.17   10.11  MgCl2:2H2O
	MgCl2_4H2O       -0.69      4.98    5.67  MgCl2:4H2O


Reaction step 14.

Using solution 1.	
Using pure phase assemblage 1.	
Using temperature 1.	

-------------------------------Phase assemblage--------------------------------

                                                      Moles in assemblage
Phase               SI  log IAP  log K(T, P)   Initial       Final       Delta

Bischofite        0.00     3.68      3.68    3.000e+02   2.543e+02  -4.566e+01

-----------------------------Solution composition------------------------------

	Elements           Molality       Moles

	Cl                1.539e+01   9.133e+01
	Mg                7.693e+00   4.566e+01

----------------------------Description of solution----------------------------

                                       pH  =   0.914      Charge balance
                                       pe  =   4.000      Adjusted to redox equilibrium
       Specific Conductance (uS/cm, 100 oC) = 2585304
                          Density (g/cm3)  =   1.39420
                               Volume (L)  =   7.37628
                        Activity of water  =   0.230
                           Ionic strength  =   2.308e+01
                       Mass of water (kg)  =   5.936e+00
                 Total alkalinity (eq/kg)  =   1.265e-10
                    Total carbon (mol/kg)  =   0.000e+00
                       Total CO2 (mol/kg)  =   0.000e+00
                      Temperature (deg C)  = 100.00
                  Electrical balance (eq)  =  -1.131e-09
 Percent error, 100*(Cat-|An|)/(Cat+|An|)  =  -0.00
                               Iterations  =  66
                         Gamma iterations  =  13
                      Osmotic coefficient  =   3.52988
                         Density of water  =   0.95835
                                  Total H  = 6.589917e+02
                                  Total O  = 3.294959e+02

----------------------------Distribution of species----------------------------

                                                    MacInnes  MacInnes
                                MacInnes       Log       Log       Log    mole V
   Species          Molality    Activity  Molality  Activity     Gamma   cm3/mol

   H+              2.516e-05   1.220e-01    -4.599    -0.914     3.686      0.00
   OH-             3.745e-09   1.064e-12    -8.427   -11.973    -3.546     24.19
   H2O             5.551e+01   2.305e-01     1.744    -0.637     0.000     18.80
Cl            1.539e+01
   Cl-             1.539e+01   4.948e+00     1.187     0.694    -0.493     21.35
Mg            7.693e+00
   Mg+2            7.693e+00   1.000e+03     0.886     6.114     5.228    -16.80
   MgOH+           2.516e-05   7.134e-04    -4.599    -3.147     1.453     (0)  

------------------------------Saturation indices-------------------------------

	Phase               SI   log IAP   log K(373 K,   1 atm)

	Bischofite        0.00      3.68    3.68  MgCl2:6H2O
	Brucite          -7.67    -17.83  -10.17  Mg(OH)2
	H2O(g)           -0.64     -0.64    0.00  H2O
	MgCl2_2H2O       -3.34      6.23    9.57  MgCl2:2H2O
	MgCl2_4H2O       -0.51      4.95    5.47  MgCl2:4H2O


Reaction step 15.

Using solution 1.	
Using pure phase assemblage 1.	
Using temperature 1.	

-------------------------------Phase assemblage--------------------------------

                                                      Moles in assemblage
Phase               SI  log IAP  log K(T, P)   Initial       Final       Delta

Bischofite       -0.03     3.46      3.49    3.000e+02           0  -3.000e+02

-----------------------------Solution composition------------------------------

	Elements           Molality       Moles

	Cl                1.795e+01   6.000e+02
	Mg                8.974e+00   3.000e+02

----------------------------Description of solution----------------------------

                                       pH  =  -0.097      Charge balance
                                       pe  =   4.000      Adjusted to redox equilibrium
       Specific Conductance (uS/cm, 116 oC) = 3511938
                          Density (g/cm3)  =   1.44436
                               Volume (L)  =  42.92005
                        Activity of water  =   0.161
                           Ionic strength  =   2.692e+01
                       Mass of water (kg)  =   3.343e+01
                 Total alkalinity (eq/kg)  =   2.246e-11
                    Total carbon (mol/kg)  =   0.000e+00
                       Total CO2 (mol/kg)  =   0.000e+00
                      Temperature (deg C)  = 116.00
                           Pressure (atm)  =  1.01
                  Electrical balance (eq)  =   5.196e-08
 Percent error, 100*(Cat-|An|)/(Cat+|An|)  =   0.00
                               Iterations  =  70
                         Gamma iterations  =  16
                      Osmotic coefficient  =   3.77100
                         Density of water  =   0.94630
                                  Total H  = 3.711012e+03
                                  Total O  = 1.855506e+03

----------------------------Distribution of species----------------------------

                                                    MacInnes  MacInnes
                                MacInnes       Log       Log       Log    mole V
   Species          Molality    Activity  Molality  Activity     Gamma   cm3/mol

   H+              2.260e-05   1.250e+00    -4.646     0.097     4.743      0.00
   OH-             3.161e-09   1.224e-13    -8.500   -12.912    -4.412     28.84
   H2O             5.551e+01   1.606e-01     1.744    -0.794     0.000     19.04
Cl            1.795e+01
   Cl-             1.795e+01   1.826e+00     1.254     0.261    -0.993     21.83
Mg            8.974e+00
   Mg+2            8.974e+00   1.000e+03     0.953     7.701     6.748    -18.34
   MgOH+           2.260e-05   4.408e-03    -4.646    -2.356     2.290     (0)  

------------------------------Saturation indices-------------------------------

	Phase               SI   log IAP   log K(389 K,   1 atm)

	Bischofite       -0.03      3.46    3.49  MgCl2:6H2O
	Brucite          -8.07    -18.12  -10.05  Mg(OH)2
	H2O(g)           -0.56     -0.79   -0.23  H2O
	MgCl2_2H2O       -2.11      6.64    8.75  MgCl2:2H2O
	MgCl2_4H2O       -0.10      5.05    5.15  MgCl2:4H2O


------------------
End of simulation.
------------------

------------------------------------
Reading input data for simulation 2.
------------------------------------

	USE solution 1
	REACTION 1
	 MgCl2 1
	 9.009, 9.910, 11.306, 12.658, 13.243
	REACTION_TEMPERATURE 1
	116, 130, 150, 170, 180
	EQUILIBRIUM_PHASES
	MgCl2_4H2O
	USER_GRAPH 
	-headings MgCl2_4H2O
	10 data  9.009, 9.910, 11.306, 12.658, 13.243
	20 dim c(30)
	30 for i = 1 to 5
	40   read c(i)
	50 next i
	60 plot_xy tot("Mg"), tc, symbol_size = 0 color =  Green
	70 plot_xy c(step_no), tc, line_width = 0, color = Green, symbol_size = 8, symbol = Plus  
	END
-----------------------------------------
Beginning of batch-reaction calculations.
-----------------------------------------

Reaction step 1.

Using solution 1.	
Using pure phase assemblage 1.	
Using temperature 1.	
Using reaction 1.	

Reaction 1.	

	  9.009e+00 moles of the following reaction have been added:

	                 Relative
	Reactant            moles

	MgCl2                1.00000

	                 Relative
	Element             moles
	Cl                   2.00000
	Mg                   1.00000

-------------------------------Phase assemblage--------------------------------

                                                      Moles in assemblage
Phase               SI  log IAP  log K(T, P)   Initial       Final       Delta

MgCl2_4H2O       -0.00     5.15      5.15    1.000e+01   9.248e+00  -7.516e-01

-----------------------------Solution composition------------------------------

	Elements           Molality       Moles

	Cl                1.852e+01   1.952e+01
	Mg                9.259e+00   9.761e+00

----------------------------Description of solution----------------------------

                                       pH  =  -0.316      Charge balance
                                       pe  =   4.000      Adjusted to redox equilibrium
       Specific Conductance (uS/cm, 116 oC) = 3623365
                          Density (g/cm3)  =   1.45555
                               Volume (L)  =   1.36271
                        Activity of water  =   0.144
                           Ionic strength  =   2.778e+01
                       Mass of water (kg)  =   1.054e+00
                 Total alkalinity (eq/kg)  =   7.124e-10
                    Total carbon (mol/kg)  =   0.000e+00
                       Total CO2 (mol/kg)  =   0.000e+00
                      Temperature (deg C)  = 116.00
                           Pressure (atm)  =  1.07
                  Electrical balance (eq)  =  -1.642e-07
 Percent error, 100*(Cat-|An|)/(Cat+|An|)  =  -0.00
                               Iterations  =  77
                         Gamma iterations  =  17
                      Osmotic coefficient  =   3.87367
                         Density of water  =   0.94630
                                  Total H  = 1.170256e+02
                                  Total O  = 5.851279e+01

----------------------------Distribution of species----------------------------

                                                    MacInnes  MacInnes
                                MacInnes       Log       Log       Log    mole V
   Species          Molality    Activity  Molality  Activity     Gamma   cm3/mol

   H+              2.069e-05   2.070e+00    -4.684     0.316     5.000      0.00
   OH-             2.666e-09   6.623e-14    -8.574   -13.179    -4.605     29.79
   H2O             5.551e+01   1.439e-01     1.744    -0.842     0.000     19.04
Cl            1.852e+01
   Cl-             1.852e+01   1.508e+00     1.268     0.178    -1.089     21.85
Mg            9.259e+00
   Mg+2            9.259e+00   1.000e+03     0.967     8.157     7.191    -18.21
   MgOH+           2.069e-05   6.809e-03    -4.684    -2.167     2.517     (0)  

------------------------------Saturation indices-------------------------------

	Phase               SI   log IAP   log K(389 K,   1 atm)

	Bischofite       -0.03      3.46    3.49  MgCl2:6H2O
	Brucite          -8.15    -18.20  -10.05  Mg(OH)2
	H2O(g)           -0.61     -0.84   -0.23  H2O
	MgCl2_2H2O       -1.92      6.83    8.75  MgCl2:2H2O
	MgCl2_4H2O       -0.00      5.15    5.15  MgCl2:4H2O


Reaction step 2.

Using solution 1.	
Using pure phase assemblage 1.	
Using temperature 1.	
Using reaction 1.	

Reaction 1.	

	  9.910e+00 moles of the following reaction have been added:

	                 Relative
	Reactant            moles

	MgCl2                1.00000

	                 Relative
	Element             moles
	Cl                   2.00000
	Mg                   1.00000

-------------------------------Phase assemblage--------------------------------

                                                      Moles in assemblage
Phase               SI  log IAP  log K(T, P)   Initial       Final       Delta

MgCl2_4H2O       -0.00     4.86      4.86    1.000e+01   1.061e+01   6.118e-01

-----------------------------Solution composition------------------------------

	Elements           Molality       Moles

	Cl                1.945e+01   1.860e+01
	Mg                9.727e+00   9.298e+00

----------------------------Description of solution----------------------------

                                       pH  =  -0.784      Charge balance
                                       pe  =   4.000      Adjusted to redox equilibrium
       Specific Conductance (uS/cm, 130 oC) = 4311453
                          Density (g/cm3)  =   1.47045
                               Volume (L)  =   1.25214
                        Activity of water  =   0.137
                           Ionic strength  =   2.918e+01
                       Mass of water (kg)  =   9.559e-01
                 Total alkalinity (eq/kg)  =   7.856e-10
                    Total carbon (mol/kg)  =   0.000e+00
                       Total CO2 (mol/kg)  =   0.000e+00
                      Temperature (deg C)  = 130.00
                           Pressure (atm)  =  1.09
                  Electrical balance (eq)  =  -7.726e-10
 Percent error, 100*(Cat-|An|)/(Cat+|An|)  =  -0.00
                               Iterations  =  66
                         Gamma iterations  =  16
                      Osmotic coefficient  =   3.78465
                         Density of water  =   0.93484
                                  Total H  = 1.061183e+02
                                  Total O  = 5.305916e+01

----------------------------Distribution of species----------------------------

                                                    MacInnes  MacInnes
                                MacInnes       Log       Log       Log    mole V
   Species          Molality    Activity  Molality  Activity     Gamma   cm3/mol

   H+              1.902e-05   6.084e+00    -4.721     0.784     5.505      0.00
   OH-             3.729e-09   3.169e-14    -8.428   -13.499    -5.071     31.82
   H2O             5.551e+01   1.367e-01     1.744    -0.864     0.000     19.27
Cl            1.945e+01
   Cl-             1.945e+01   6.445e-01     1.289    -0.191    -1.480     22.54
Mg            9.727e+00
   Mg+2            9.727e+00   1.000e+03     0.988     8.702     7.714    -20.39
   MgOH+           1.902e-05   1.544e-02    -4.721    -1.811     2.909     (0)  

------------------------------Saturation indices-------------------------------

	Phase               SI   log IAP   log K(403 K,   1 atm)

	Bischofite       -0.19      3.14    3.32  MgCl2:6H2O
	Brucite          -8.34    -18.30   -9.95  Mg(OH)2
	H2O(g)           -0.45     -0.86   -0.42  H2O
	MgCl2_2H2O       -1.50      6.59    8.09  MgCl2:2H2O
	MgCl2_4H2O        0.00      4.86    4.86  MgCl2:4H2O


Reaction step 3.

Using solution 1.	
Using pure phase assemblage 1.	
Using temperature 1.	
Using reaction 1.	

Reaction 1.	

	  1.131e+01 moles of the following reaction have been added:

	                 Relative
	Reactant            moles

	MgCl2                1.00000

	                 Relative
	Element             moles
	Cl                   2.00000
	Mg                   1.00000

-------------------------------Phase assemblage--------------------------------

                                                      Moles in assemblage
Phase               SI  log IAP  log K(T, P)   Initial       Final       Delta

MgCl2_4H2O       -0.00     4.46      4.46    1.000e+01   1.284e+01   2.842e+00

-----------------------------Solution composition------------------------------

	Elements           Molality       Moles

	Cl                2.129e+01   1.693e+01
	Mg                1.064e+01   8.464e+00

----------------------------Description of solution----------------------------

                                       pH  =  -1.769      Charge balance
                                       pe  =   4.000      Adjusted to redox equilibrium
       Specific Conductance (uS/cm, 150 oC) = 5534486
                          Density (g/cm3)  =   1.49097
                               Volume (L)  =   1.07382
                        Activity of water  =   0.120
                           Ionic strength  =   3.193e+01
                       Mass of water (kg)  =   7.952e-01
                 Total alkalinity (eq/kg)  =   9.444e-10
                    Total carbon (mol/kg)  =   0.000e+00
                       Total CO2 (mol/kg)  =   0.000e+00
                      Temperature (deg C)  = 150.00
                           Pressure (atm)  =  1.18
                  Electrical balance (eq)  =  -6.025e-08
 Percent error, 100*(Cat-|An|)/(Cat+|An|)  =  -0.00
                               Iterations  =  72
                         Gamma iterations  =  18
                      Osmotic coefficient  =   3.69158
                         Density of water  =   0.91701
                                  Total H  = 8.827519e+01
                                  Total O  = 4.413759e+01

----------------------------Distribution of species----------------------------

                                                    MacInnes  MacInnes
                                MacInnes       Log       Log       Log    mole V
   Species          Molality    Activity  Molality  Activity     Gamma   cm3/mol

   H+              1.303e-05   5.872e+01    -4.885     1.769     6.654      0.00
   OH-             5.508e-09   4.573e-15    -8.259   -14.340    -6.081     36.01
   H2O             5.551e+01   1.196e-01     1.744    -0.922     0.000     19.65
Cl            2.129e+01
   Cl-             2.129e+01   1.027e-01     1.328    -0.989    -2.317     24.26
Mg            1.064e+01
   Mg+2            1.064e+01   1.000e+03     1.027    10.128     9.101    -24.10
   MgOH+           1.303e-05   9.260e-02    -4.885    -1.033     3.852     (0)  

------------------------------Saturation indices-------------------------------

	Phase               SI   log IAP   log K(423 K,   1 atm)

	Bischofite       -0.47      2.62    3.09  MgCl2:6H2O
	Brucite          -8.72    -18.55   -9.83  Mg(OH)2
	H2O(g)           -0.26     -0.92   -0.66  H2O
	MgCl2_2H2O       -0.92      6.31    7.22  MgCl2:2H2O
	MgCl2_4H2O       -0.00      4.46    4.46  MgCl2:4H2O


Reaction step 4.

Using solution 1.	
Using pure phase assemblage 1.	
Using temperature 1.	
Using reaction 1.	

Reaction 1.	

	  1.266e+01 moles of the following reaction have been added:

	                 Relative
	Reactant            moles

	MgCl2                1.00000

	                 Relative
	Element             moles
	Cl                   2.00000
	Mg                   1.00000

-------------------------------Phase assemblage--------------------------------

                                                      Moles in assemblage
Phase               SI  log IAP  log K(T, P)   Initial       Final       Delta

MgCl2_4H2O       -0.00     4.06      4.06    1.000e+01   1.207e+01   2.067e+00

-----------------------------Solution composition------------------------------

	Elements           Molality       Moles

	Cl                2.489e+01   2.118e+01
	Mg                1.244e+01   1.059e+01

----------------------------Description of solution----------------------------

                                       pH  =  -3.910      Charge balance
                                       pe  =   4.000      Adjusted to redox equilibrium
       Specific Conductance (uS/cm, 170 oC) = 7460248
                          Density (g/cm3)  =   1.51575
                               Volume (L)  =   1.22675
                        Activity of water  =   0.082
                           Ionic strength  =   3.733e+01
                       Mass of water (kg)  =   8.511e-01
                 Total alkalinity (eq/kg)  =   8.824e-10
                    Total carbon (mol/kg)  =   0.000e+00
                       Total CO2 (mol/kg)  =   0.000e+00
                      Temperature (deg C)  = 170.00
                           Pressure (atm)  =  1.08
                  Electrical balance (eq)  =  -7.884e-10
 Percent error, 100*(Cat-|An|)/(Cat+|An|)  =  -0.00
                               Iterations  = 141
                         Gamma iterations  =  29
                      Osmotic coefficient  =   3.72015
                         Density of water  =   0.89745
                                  Total H  = 9.447715e+01
                                  Total O  = 4.723858e+01

----------------------------Distribution of species----------------------------

                                                    MacInnes  MacInnes
                                MacInnes       Log       Log       Log    mole V
   Species          Molality    Activity  Molality  Activity     Gamma   cm3/mol

   H+              3.794e-06   1.000e+03    -5.421     3.910     9.331      0.00
   OH-             6.609e-09   3.273e-17    -8.180   -16.485    -8.305     44.53
   H2O             5.551e+01   8.191e-02     1.744    -1.087     0.000     20.07
Cl            2.489e+01
   Cl-             2.489e+01   1.791e-03     1.396    -2.747    -4.143     27.66
Mg            1.244e+01
   Mg+2            1.244e+01   1.000e+03     1.095    13.900    12.805    -29.02
   MgOH+           3.788e-06   6.188e+00    -5.422     0.792     6.213     (0)  

------------------------------Saturation indices-------------------------------

	Phase               SI   log IAP   log K(443 K,   1 atm)

	Bischofite       -0.96      1.89    2.85  MgCl2:6H2O
	Brucite          -9.35    -19.07   -9.72  Mg(OH)2
	H2O(g)           -0.21     -1.09   -0.87  H2O
	MgCl2_2H2O       -0.20      6.23    6.43  MgCl2:2H2O
	MgCl2_4H2O        0.00      4.06    4.06  MgCl2:4H2O


Reaction step 5.

Using solution 1.	
Using pure phase assemblage 1.	
Using temperature 1.	
Using reaction 1.	

Reaction 1.	

	  1.324e+01 moles of the following reaction have been added:

	                 Relative
	Reactant            moles

	MgCl2                1.00000

	                 Relative
	Element             moles
	Cl                   2.00000
	Mg                   1.00000

-------------------------------Phase assemblage--------------------------------

                                                      Moles in assemblage
Phase               SI  log IAP  log K(T, P)   Initial       Final       Delta

MgCl2_4H2O       -0.07     3.79      3.86    1.000e+01           0  -1.000e+01

-----------------------------Solution composition------------------------------

	Elements           Molality       Moles

	Cl                2.702e+01   4.649e+01
	Mg                1.351e+01   2.324e+01

----------------------------Description of solution----------------------------

                                       pH  =  -5.401      Charge balance
                                       pe  =   4.000      Adjusted to redox equilibrium
       Specific Conductance (uS/cm, 180 oC) = 8648214
                          Density (g/cm3)  =   1.51274
                               Volume (L)  =   2.60034
                        Activity of water  =   0.067
                           Ionic strength  =   4.053e+01
                       Mass of water (kg)  =   1.721e+00
                 Total alkalinity (eq/kg)  =   4.364e-10
                    Total carbon (mol/kg)  =   0.000e+00
                       Total CO2 (mol/kg)  =   0.000e+00
                      Temperature (deg C)  = 180.00
                           Pressure (atm)  =  1.04
                  Electrical balance (eq)  =   3.664e-07
 Percent error, 100*(Cat-|An|)/(Cat+|An|)  =   0.00
                               Iterations  = 120
                         Gamma iterations  =  26
                      Osmotic coefficient  =   3.70378
                         Density of water  =   0.88700
                                  Total H  = 1.910124e+02
                                  Total O  = 9.550622e+01

----------------------------Distribution of species----------------------------

                                                    MacInnes  MacInnes
                                MacInnes       Log       Log       Log    mole V
   Species          Molality    Activity  Molality  Activity     Gamma   cm3/mol

   H+              1.446e-06   1.000e+03    -5.840     5.401    11.241      0.00
   OH-             7.647e-09   1.007e-18    -8.116   -17.997    -9.880     50.10
   H2O             5.551e+01   6.694e-02     1.744    -1.174     0.000     20.31
Cl            2.702e+01
   Cl-             2.702e+01   8.603e-05     1.432    -4.065    -5.497     30.28
Mg            1.351e+01
   Mg+2            1.351e+01   1.000e+03     1.131    16.617    15.486    -32.14
   MgOH+           1.439e-06   1.253e+02    -5.842     2.098     7.940     (0)  

------------------------------Saturation indices-------------------------------

	Phase               SI   log IAP   log K(453 K,   1 atm)

	Bischofite       -1.29      1.44    2.73  MgCl2:6H2O
	Brucite          -9.71    -19.38   -9.66  Mg(OH)2
	H2O(g)           -0.20     -1.17   -0.97  H2O
	MgCl2_2H2O        0.07      6.14    6.06  MgCl2:2H2O
	MgCl2_4H2O       -0.07      3.79    3.86  MgCl2:4H2O


------------------
End of simulation.
------------------

------------------------------------
Reading input data for simulation 3.
------------------------------------

	USE solution 1
	REACTION 1
	 MgCl2 1
	 13.243, 13.468, 13.874
	REACTION_TEMPERATURE 1
	180, 187, 200
	EQUILIBRIUM_PHASES
	MgCl2_2H2O
	USER_GRAPH 
	-headings MgCl2_2H2O
	10 data   13.243, 13.468, 13.874
	20 dim c(30)
	30 for i = 1 to 3
	40   read c(i)
	50 next i
	60 plot_xy tot("Mg"), tc, symbol_size = 0 color =  Blue
	70 plot_xy c(step_no), tc, line_width = 0, color = Blue, symbol_size = 8, symbol = Circle  
	END
-----------------------------------------
Beginning of batch-reaction calculations.
-----------------------------------------

Reaction step 1.

Using solution 1.	
Using pure phase assemblage 1.	
Using temperature 1.	
Using reaction 1.	

Reaction 1.	

	  1.324e+01 moles of the following reaction have been added:

	                 Relative
	Reactant            moles

	MgCl2                1.00000

	                 Relative
	Element             moles
	Cl                   2.00000
	Mg                   1.00000

-------------------------------Phase assemblage--------------------------------

                                                      Moles in assemblage
Phase               SI  log IAP  log K(T, P)   Initial       Final       Delta

MgCl2_2H2O        0.00     6.06      6.06    1.000e+01   9.977e+00  -2.335e-02

-----------------------------Solution composition------------------------------

	Elements           Molality       Moles

	Cl                2.651e+01   2.653e+01
	Mg                1.326e+01   1.327e+01

----------------------------Description of solution----------------------------

                                       pH  =  -5.087      Charge balance
                                       pe  =   4.000      Adjusted to redox equilibrium
       Specific Conductance (uS/cm, 180 oC) = 8486148
                          Density (g/cm3)  =   1.50649
                               Volume (L)  =   1.50279
                        Activity of water  =   0.072
                           Ionic strength  =   3.977e+01
                       Mass of water (kg)  =   1.001e+00
                 Total alkalinity (eq/kg)  =   7.504e-10
                    Total carbon (mol/kg)  =   0.000e+00
                       Total CO2 (mol/kg)  =   0.000e+00
                      Temperature (deg C)  = 180.00
                           Pressure (atm)  =  1.03
                  Electrical balance (eq)  =  -8.072e-10
 Percent error, 100*(Cat-|An|)/(Cat+|An|)  =  -0.00
                               Iterations  =  93
                         Gamma iterations  =  27
                      Osmotic coefficient  =   3.66382
                         Density of water  =   0.88700
                                  Total H  = 1.111058e+02
                                  Total O  = 5.555292e+01

----------------------------Distribution of species----------------------------

                                                    MacInnes  MacInnes
                                MacInnes       Log       Log       Log    mole V
   Species          Molality    Activity  Molality  Activity     Gamma   cm3/mol

   H+              1.813e-06   1.000e+03    -5.742     5.087    10.829      0.00
   OH-             8.066e-09   2.247e-18    -8.093   -17.648    -9.555     49.07
   H2O             5.551e+01   7.246e-02     1.744    -1.140     0.000     20.31
Cl            2.651e+01
   Cl-             2.651e+01   1.535e-04     1.423    -3.814    -5.237     30.12
Mg            1.326e+01
   Mg+2            1.326e+01   1.000e+03     1.122    15.971    14.849    -32.01
   MgOH+           1.806e-06   6.321e+01    -5.743     1.801     7.544     (0)  

------------------------------Saturation indices-------------------------------

	Phase               SI   log IAP   log K(453 K,   1 atm)

	Bischofite       -1.23      1.50    2.73  MgCl2:6H2O
	Brucite          -9.66    -19.33   -9.66  Mg(OH)2
	H2O(g)           -0.17     -1.14   -0.97  H2O
	MgCl2_2H2O        0.00      6.06    6.06  MgCl2:2H2O
	MgCl2_4H2O       -0.07      3.78    3.86  MgCl2:4H2O


Reaction step 2.

Using solution 1.	
Using pure phase assemblage 1.	
Using temperature 1.	
Using reaction 1.	

Reaction 1.	

	  1.347e+01 moles of the following reaction have been added:

	                 Relative
	Reactant            moles

	MgCl2                1.00000

	                 Relative
	Element             moles
	Cl                   2.00000
	Mg                   1.00000

-------------------------------Phase assemblage--------------------------------

                                                      Moles in assemblage
Phase               SI  log IAP  log K(T, P)   Initial       Final       Delta

MgCl2_2H2O       -0.00     5.82      5.82    1.000e+01   1.005e+01   4.503e-02

-----------------------------Solution composition------------------------------

	Elements           Molality       Moles

	Cl                2.689e+01   2.685e+01
	Mg                1.344e+01   1.342e+01

----------------------------Description of solution----------------------------

                                       pH  =  -5.508      Charge balance
                                       pe  =   4.000      Adjusted to redox equilibrium
       Specific Conductance (uS/cm, 187 oC) = 8996130
                          Density (g/cm3)  =   1.48237
                               Volume (L)  =   1.53564
                        Activity of water  =   0.076
                           Ionic strength  =   4.033e+01
                       Mass of water (kg)  =   9.984e-01
                 Total alkalinity (eq/kg)  =   7.522e-10
                    Total carbon (mol/kg)  =   0.000e+00
                       Total CO2 (mol/kg)  =   0.000e+00
                      Temperature (deg C)  = 187.00
                           Pressure (atm)  =  1.11
                  Electrical balance (eq)  =  -5.430e-08
 Percent error, 100*(Cat-|An|)/(Cat+|An|)  =  -0.00
                               Iterations  =  95
                         Gamma iterations  =  28
                      Osmotic coefficient  =   3.55520
                         Density of water  =   0.87941
                                  Total H  = 1.108323e+02
                                  Total O  = 5.541615e+01

----------------------------Distribution of species----------------------------

                                                    MacInnes  MacInnes
                                MacInnes       Log       Log       Log    mole V
   Species          Molality    Activity  Molality  Activity     Gamma   cm3/mol

   H+              1.441e-06   1.000e+03    -5.841     5.508    11.350      0.00
   OH-             1.017e-08   9.786e-19    -7.993   -18.009   -10.017     50.94
   H2O             5.551e+01   7.552e-02     1.744    -1.122     0.000     20.49
Cl            2.689e+01
   Cl-             2.689e+01   5.476e-05     1.430    -4.262    -5.691     31.97
Mg            1.344e+01
   Mg+2            1.344e+01   1.000e+03     1.129    16.582    15.454    -34.11
   MgOH+           1.432e-06   1.324e+02    -5.844     2.122     7.966     (0)  

------------------------------Saturation indices-------------------------------

	Phase               SI   log IAP   log K(460 K,   1 atm)

	Bischofite       -1.32      1.33    2.65  MgCl2:6H2O
	Brucite          -9.81    -19.44   -9.63  Mg(OH)2
	H2O(g)           -0.08     -1.12   -1.04  H2O
	MgCl2_2H2O        0.00      5.82    5.82  MgCl2:2H2O
	MgCl2_4H2O       -0.15      3.57    3.72  MgCl2:4H2O


Reaction step 3.

Using solution 1.	
Using pure phase assemblage 1.	
Using temperature 1.	
Using reaction 1.	

Reaction 1.	

	  1.387e+01 moles of the following reaction have been added:

	                 Relative
	Reactant            moles

	MgCl2                1.00000

	                 Relative
	Element             moles
	Cl                   2.00000
	Mg                   1.00000

-------------------------------Phase assemblage--------------------------------

                                                      Moles in assemblage
Phase               SI  log IAP  log K(T, P)   Initial       Final       Delta

MgCl2_2H2O       -0.00     5.37      5.37    1.000e+01   9.985e+00  -1.549e-02

-----------------------------Solution composition------------------------------

	Elements           Molality       Moles

	Cl                2.776e+01   2.778e+01
	Mg                1.388e+01   1.389e+01

----------------------------Description of solution----------------------------

                                       pH  =  -6.473      Charge balance
                                       pe  =   4.000      Adjusted to redox equilibrium
       Specific Conductance (uS/cm, 200 oC) = 10045228
                          Density (g/cm3)  =   1.42195
                               Volume (L)  =   1.63366
                        Activity of water  =   0.080
                           Ionic strength  =   4.165e+01
                       Mass of water (kg)  =   1.001e+00
                 Total alkalinity (eq/kg)  =   7.506e-10
                    Total carbon (mol/kg)  =   0.000e+00
                       Total CO2 (mol/kg)  =   0.000e+00
                      Temperature (deg C)  = 200.00
                           Pressure (atm)  =  1.23
                  Electrical balance (eq)  =  -1.552e-07
 Percent error, 100*(Cat-|An|)/(Cat+|An|)  =  -0.00
                               Iterations  = 116
                         Gamma iterations  =  31
                      Osmotic coefficient  =   3.37031
                         Density of water  =   0.86467
                                  Total H  = 1.110744e+02
                                  Total O  = 5.553719e+01

----------------------------Distribution of species----------------------------

                                                    MacInnes  MacInnes
                                MacInnes       Log       Log       Log    mole V
   Species          Molality    Activity  Molality  Activity     Gamma   cm3/mol

   H+              8.380e-07   1.000e+03    -6.077     6.473    12.549      0.00
   OH-             1.509e-08   1.313e-19    -7.821   -18.882   -11.061     55.46
   H2O             5.551e+01   7.977e-02     1.744    -1.098     0.000     20.84
Cl            2.776e+01
   Cl-             2.776e+01   5.586e-06     1.443    -5.253    -6.696     36.36
Mg            1.388e+01
   Mg+2            1.388e+01   1.000e+03     1.142    18.075    16.933    -38.41
   MgOH+           8.237e-07   7.508e+02    -6.084     2.876     8.960     (0)  

------------------------------Saturation indices-------------------------------

	Phase               SI   log IAP   log K(473 K,   1 atm)

	Bischofite       -1.52      0.98    2.50  MgCl2:6H2O
	Brucite         -10.12    -19.69   -9.57  Mg(OH)2
	H2O(g)            0.05     -1.10   -1.15  H2O
	MgCl2_2H2O       -0.00      5.37    5.37  MgCl2:2H2O
	MgCl2_4H2O       -0.28      3.18    3.46  MgCl2:4H2O


------------------
End of simulation.
------------------

------------------------------------
Reading input data for simulation 4.
------------------------------------

------------------------------
End of Run after 0.21 Seconds.
------------------------------

