WARNING: Database file from DATABASE keyword is used; command line argument ignored.
   Input file: millero
  Output file: millero.out
Database file: ../database/phreeqc.dat

------------------
Reading data base.
------------------

	SOLUTION_MASTER_SPECIES
	SOLUTION_SPECIES
	PHASES
	EXCHANGE_MASTER_SPECIES
	EXCHANGE_SPECIES
	SURFACE_MASTER_SPECIES
	SURFACE_SPECIES
	CALCULATE_VALUES
	RATES
	END
------------------------------------
Reading input data for simulation 1.
------------------------------------

	DATABASE ../database/phreeqc.dat
	SELECTED_OUTPUT 101
	    file                 millero_101.sel
	USER_PUNCH 101
	    headings Mu SC
	    start
	10 PUNCH STR_F$(MU, 20, 12)
	20 PUNCH STR_F$(SC, 20, 10)
	    end
	SELECTED_OUTPUT
	   file millero.csv
	   reset false
	USER_PUNCH
	headings tc rho
	start
	10 punch TC, RHO
	end
	SOLUTION 1  SEAWATER FROM Millero 2008
	        units   ppt
	        pH      8.1
	        temp    25.0
	        Na              10.78145
	        Mg              1.28372
	        Ca              0.41208
	        K               0.39910
	        Sr              0.00795
	        Cl              19.35271
	        S(6)            2.71235
	        Alkalinity      .140346 as HCO3
	        Br              0.06728
	        F               0.00130
	        B               0.004489072
	END
-------------------------------------------
Beginning of initial solution calculations.
-------------------------------------------

Initial solution 1.	SEAWATER FROM Millero 2008

-----------------------------Solution composition------------------------------

	Elements           Molality       Moles

	Alkalinity        2.384e-03   2.384e-03
	B                 4.304e-04   4.304e-04
	Br                8.727e-04   8.727e-04
	Ca                1.066e-02   1.066e-02
	Cl                5.658e-01   5.658e-01
	F                 7.092e-05   7.092e-05
	K                 1.058e-02   1.058e-02
	Mg                5.473e-02   5.473e-02
	Na                4.861e-01   4.861e-01
	S(6)              2.926e-02   2.926e-02
	Sr                9.404e-05   9.404e-05

----------------------------Description of solution----------------------------

                                       pH  =   8.100    
                                       pe  =   4.000    
      Specific Conductance (µS/cm,  25°C)  = 52910
                          Density (g/cm³)  =   1.02334
                               Volume (L)  =   1.01282
                        Viscosity (mPa s)  =   0.96019
                        Activity of water  =   0.981
                 Ionic strength (mol/kgw)  =   6.707e-01
                       Mass of water (kg)  =   1.000e+00
                    Total carbon (mol/kg)  =   2.223e-03
                       Total CO2 (mol/kg)  =   2.223e-03
                         Temperature (°C)  =  25.00
                  Electrical balance (eq)  =  -2.913e-05
 Percent error, 100*(Cat-|An|)/(Cat+|An|)  =  -0.00
                               Iterations  =   9
                                  Total H  = 1.110158e+02
                                  Total O  = 5.563123e+01

----------------------------Distribution of species----------------------------

                                               Log       Log       Log    mole V
   Species          Molality    Activity  Molality  Activity     Gamma   cm³/mol

   OH-             2.051e-06   1.250e-06    -5.688    -5.903    -0.215     -2.63
   H+              1.052e-08   7.943e-09    -7.978    -8.100    -0.122      0.00
   H2O             5.551e+01   9.806e-01     1.744    -0.009     0.000     18.07
B             4.304e-04
   H3BO3           3.866e-04   4.512e-04    -3.413    -3.346     0.067     39.23
   H2BO3-          4.379e-05   3.268e-05    -4.359    -4.486    -0.127     (0)  
   BF(OH)3-        5.225e-09   3.900e-09    -8.282    -8.409    -0.127     (0)  
   BF2(OH)2-       9.847e-14   7.350e-14   -13.007   -13.134    -0.127     (0)  
   BF3OH-          1.899e-20   1.417e-20   -19.721   -19.848    -0.127     (0)  
   BF4-            1.361e-26   1.016e-26   -25.866   -25.993    -0.127     (0)  
Br            8.727e-04
   Br-             8.727e-04   5.125e-04    -3.059    -3.290    -0.231     25.23
C(4)          2.223e-03
   HCO3-           1.533e-03   1.036e-03    -2.814    -2.985    -0.170     25.99
   MgHCO3+         2.751e-04   1.731e-04    -3.561    -3.762    -0.201      5.82
   NaHCO3          2.243e-04   3.055e-04    -3.649    -3.515     0.134     31.73
   MgCO3           7.142e-05   8.335e-05    -4.146    -4.079     0.067    -17.09
   CaHCO3+         4.745e-05   3.284e-05    -4.324    -4.484    -0.160      9.96
   CO3-2           2.935e-05   6.115e-06    -4.532    -5.214    -0.681     -0.52
   CaCO3           2.188e-05   2.553e-05    -4.660    -4.593     0.067    -14.60
   CO2             1.704e-05   1.886e-05    -4.769    -4.724     0.044     34.43
   KHCO3           2.954e-06   2.998e-06    -5.530    -5.523     0.006     41.03
   SrHCO3+         5.019e-07   3.391e-07    -6.299    -6.470    -0.170     (0)  
   SrCO3           7.159e-08   8.354e-08    -7.145    -7.078     0.067    -14.13
   (CO2)2          5.597e-12   6.532e-12   -11.252   -11.185     0.067     68.87
Ca            1.066e-02
   Ca+2            9.935e-03   2.485e-03    -2.003    -2.605    -0.602    -16.70
   CaSO4           6.520e-04   7.609e-04    -3.186    -3.119     0.067      7.50
   CaHCO3+         4.745e-05   3.284e-05    -4.324    -4.484    -0.160      9.96
   CaCO3           2.188e-05   2.553e-05    -4.660    -4.593     0.067    -14.60
   CaOH+           6.821e-08   5.092e-08    -7.166    -7.293    -0.127     (0)  
   CaHSO4+         5.323e-11   3.973e-11   -10.274   -10.401    -0.127     (0)  
Cl            5.658e-01
   Cl-             5.658e-01   3.570e-01    -0.247    -0.447    -0.200     18.79
   HCl             5.063e-10   9.770e-10    -9.296    -9.010     0.285     (0)  
F             7.092e-05
   F-              3.563e-05   2.171e-05    -4.448    -4.663    -0.215     -0.58
   MgF+            3.166e-05   2.049e-05    -4.500    -4.688    -0.189    -10.25
   NaF             3.625e-06   4.230e-06    -5.441    -5.374     0.067      7.26
   BF(OH)3-        5.225e-09   3.900e-09    -8.282    -8.409    -0.127     (0)  
   HF              2.216e-10   2.587e-10    -9.654    -9.587     0.067     12.50
   BF2(OH)2-       9.847e-14   7.350e-14   -13.007   -13.134    -0.127     (0)  
   HF2-            2.887e-14   2.155e-14   -13.540   -13.667    -0.127     22.80
   BF3OH-          1.899e-20   1.417e-20   -19.721   -19.848    -0.127     (0)  
   BF4-            1.361e-26   1.016e-26   -25.866   -25.993    -0.127     (0)  
H(0)          7.655e-28
   H2              3.828e-28   4.467e-28   -27.417   -27.350     0.067     28.61
K             1.058e-02
   K+              1.039e-02   6.478e-03    -1.983    -2.189    -0.205      9.66
   KSO4-           1.873e-04   1.697e-04    -3.727    -3.770    -0.043     11.34
   KHCO3           2.954e-06   2.998e-06    -5.530    -5.523     0.006     41.03
Mg            5.473e-02
   Mg+2            4.948e-02   1.428e-02    -1.306    -1.845    -0.540    -20.42
   MgSO4           4.728e-03   6.439e-03    -2.325    -2.191     0.134     -7.92
   MgHCO3+         2.751e-04   1.731e-04    -3.561    -3.762    -0.201      5.82
   Mg(SO4)2-2      1.290e-04   3.651e-05    -3.890    -4.438    -0.548     32.92
   MgCO3           7.142e-05   8.335e-05    -4.146    -4.079     0.067    -17.09
   MgF+            3.166e-05   2.049e-05    -4.500    -4.688    -0.189    -10.25
   MgOH+           9.084e-06   6.402e-06    -5.042    -5.194    -0.152     (0)  
Na            4.861e-01
   Na+             4.718e-01   3.386e-01    -0.326    -0.470    -0.144     -0.51
   NaSO4-          1.399e-02   9.490e-03    -1.854    -2.023    -0.168      8.22
   NaHCO3          2.243e-04   3.055e-04    -3.649    -3.515     0.134     31.73
   NaF             3.625e-06   4.230e-06    -5.441    -5.374     0.067      7.26
   NaOH            3.625e-17   4.231e-17   -16.441   -16.374     0.067     (0)  
O(0)          3.443e-38
   O2              1.722e-38   2.009e-38   -37.764   -37.697     0.067     30.40
S(6)          2.926e-02
   NaSO4-          1.399e-02   9.490e-03    -1.854    -2.023    -0.168      8.22
   SO4-2           9.446e-03   1.722e-03    -2.025    -2.764    -0.739     38.42
   MgSO4           4.728e-03   6.439e-03    -2.325    -2.191     0.134     -7.92
   CaSO4           6.520e-04   7.609e-04    -3.186    -3.119     0.067      7.50
   KSO4-           1.873e-04   1.697e-04    -3.727    -3.770    -0.043     11.34
   Mg(SO4)2-2      1.290e-04   3.651e-05    -3.890    -4.438    -0.548     32.92
   SrSO4           6.156e-06   7.184e-06    -5.211    -5.144     0.067     24.24
   HSO4-           1.781e-09   1.330e-09    -8.749    -8.876    -0.127     40.96
   CaHSO4+         5.323e-11   3.973e-11   -10.274   -10.401    -0.127     (0)  
Sr            9.404e-05
   Sr+2            8.731e-05   2.140e-05    -4.059    -4.670    -0.611    -16.54
   SrSO4           6.156e-06   7.184e-06    -5.211    -5.144     0.067     24.24
   SrHCO3+         5.019e-07   3.391e-07    -6.299    -6.470    -0.170     (0)  
   SrCO3           7.159e-08   8.354e-08    -7.145    -7.078     0.067    -14.13
   SrOH+           2.042e-10   1.355e-10    -9.690    -9.868    -0.178     (0)  

------------------------------Saturation indices-------------------------------

  Phase               SI** log IAP   log K(298 K,   1 atm)

  Anhydrite        -1.09     -5.37   -4.28  CaSO4
  Aragonite         0.52     -7.82   -8.34  CaCO3
  Arcanite         -5.26     -7.14   -1.88  K2SO4
  Calcite           0.66     -7.82   -8.48  CaCO3
  Celestite        -0.78     -7.43   -6.66  SrSO4
  CO2(g)           -3.26     -4.72   -1.47  CO2
  Dolomite          2.21    -14.88  -17.08  CaMg(CO3)2
  Epsomite         -2.93     -4.67   -1.74  MgSO4:7H2O
  Fluorite         -1.33    -11.93  -10.60  CaF2
  Gypsum           -0.80     -5.39   -4.58  CaSO4:2H2O
  H2(g)           -24.25    -27.35   -3.10  H2
  H2O(g)           -1.51     -0.01    1.50  H2O
  Halite           -2.49     -0.92    1.57  NaCl
  Hexahydrite      -3.09     -4.66   -1.57  MgSO4:6H2O
  Kieserite        -3.46     -4.62   -1.16  MgSO4:H2O
  Mirabilite       -2.55     -3.79   -1.24  Na2SO4:10H2O
  O2(g)           -34.80    -37.70   -2.89  O2
  Strontianite     -0.61     -9.88   -9.27  SrCO3
  Sylvite          -3.54     -2.64    0.90  KCl
  Thenardite       -3.40     -3.70   -0.30  Na2SO4

**For a gas, SI = log10(fugacity). Fugacity = pressure * phi / 1 atm.
  For ideal gases, phi = 1.

------------------
End of simulation.
------------------

------------------------------------
Reading input data for simulation 2.
------------------------------------

	SOLUTION 2  Lake Baikal (Millero, 2000)
	        units   mmol/l
	        pH      7.00
	        temp    25.0
	        Na              0.155
	        Mg              0.126
	        Ca              0.402
	        K               0.0241
	        Cl              0.0124
	        S(6)            0.0574
	        Alkalinity      1.093
	END
-------------------------------------------
Beginning of initial solution calculations.
-------------------------------------------

Initial solution 2.	Lake Baikal (Millero, 2000)

-----------------------------Solution composition------------------------------

	Elements           Molality       Moles

	Alkalinity        1.093e-03   1.093e-03
	Ca                4.020e-04   4.020e-04
	Cl                1.240e-05   1.240e-05
	K                 2.410e-05   2.410e-05
	Mg                1.260e-04   1.260e-04
	Na                1.550e-04   1.550e-04
	S(6)              5.740e-05   5.740e-05

----------------------------Description of solution----------------------------

                                       pH  =   7.000    
                                       pe  =   4.000    
      Specific Conductance (µS/cm,  25°C)  = 124
                          Density (g/cm³)  =   0.99712
                               Volume (L)  =   1.00299
                        Viscosity (mPa s)  =   0.89104
                        Activity of water  =   1.000
                 Ionic strength (mol/kgw)  =   1.786e-03
                       Mass of water (kg)  =   1.000e+00
                    Total carbon (mol/kg)  =   1.325e-03
                       Total CO2 (mol/kg)  =   1.325e-03
                         Temperature (°C)  =  25.00
                  Electrical balance (eq)  =   1.490e-05
 Percent error, 100*(Cat-|An|)/(Cat+|An|)  =   0.61
                               Iterations  =   6
                                  Total H  = 1.110135e+02
                                  Total O  = 5.551019e+01

----------------------------Distribution of species----------------------------

                                               Log       Log       Log    mole V
   Species          Molality    Activity  Molality  Activity     Gamma   cm³/mol

   OH-             1.061e-07   1.012e-07    -6.974    -6.995    -0.021     -4.10
   H+              1.045e-07   1.000e-07    -6.981    -7.000    -0.019      0.00
   H2O             5.551e+01   1.000e+00     1.744    -0.000     0.000     18.07
C(4)          1.325e-03
   HCO3-           1.085e-03   1.036e-03    -2.964    -2.985    -0.020     24.59
   CO2             2.329e-04   2.330e-04    -3.633    -3.633     0.000     34.43
   CaHCO3+         4.540e-06   4.337e-06    -5.343    -5.363    -0.020      9.68
   MgHCO3+         1.306e-06   1.246e-06    -5.884    -5.905    -0.020      5.49
   CO3-2           5.846e-07   4.860e-07    -6.233    -6.313    -0.080     -3.89
   CaCO3           2.677e-07   2.678e-07    -6.572    -6.572     0.000    -14.60
   NaHCO3          1.332e-07   1.333e-07    -6.875    -6.875     0.000     31.73
   MgCO3           4.763e-08   4.765e-08    -7.322    -7.322     0.000    -17.09
   KHCO3           1.063e-08   1.063e-08    -7.973    -7.973     0.000     41.03
   (CO2)2          9.962e-10   9.966e-10    -9.002    -9.001     0.000     68.87
Ca            4.020e-04
   Ca+2            3.946e-04   3.280e-04    -3.404    -3.484    -0.080    -18.11
   CaHCO3+         4.540e-06   4.337e-06    -5.343    -5.363    -0.020      9.68
   CaSO4           2.590e-06   2.591e-06    -5.587    -5.587     0.000      7.50
   CaCO3           2.677e-07   2.678e-07    -6.572    -6.572     0.000    -14.60
   CaOH+           5.705e-10   5.443e-10    -9.244    -9.264    -0.020     (0)  
   CaHSO4+         1.785e-12   1.703e-12   -11.748   -11.769    -0.020     (0)  
Cl            1.240e-05
   Cl-             1.240e-05   1.183e-05    -4.907    -4.927    -0.020     18.08
   HCl             4.068e-13   4.075e-13   -12.391   -12.390     0.001     (0)  
H(0)          1.415e-25
   H2              7.077e-26   7.079e-26   -25.150   -25.150     0.000     28.61
K             2.410e-05
   K+              2.408e-05   2.296e-05    -4.618    -4.639    -0.021      9.02
   KSO4-           1.624e-08   1.552e-08    -7.789    -7.809    -0.020     14.15
   KHCO3           1.063e-08   1.063e-08    -7.973    -7.973     0.000     41.03
Mg            1.260e-04
   Mg+2            1.235e-04   1.028e-04    -3.908    -3.988    -0.080    -21.79
   MgHCO3+         1.306e-06   1.246e-06    -5.884    -5.905    -0.020      5.49
   MgSO4           1.194e-06   1.195e-06    -5.923    -5.923     0.000     -7.92
   MgCO3           4.763e-08   4.765e-08    -7.322    -7.322     0.000    -17.09
   MgOH+           3.904e-09   3.731e-09    -8.408    -8.428    -0.020     (0)  
   Mg(SO4)2-2      2.095e-10   1.749e-10    -9.679    -9.757    -0.078     -1.87
Na            1.550e-04
   Na+             1.548e-04   1.477e-04    -3.810    -3.831    -0.020     -1.46
   NaHCO3          1.332e-07   1.333e-07    -6.875    -6.875     0.000     31.73
   NaSO4-          1.119e-07   1.068e-07    -6.951    -6.971    -0.020    -19.76
   NaOH            1.494e-21   1.495e-21   -20.826   -20.825     0.000     (0)  
O(0)          0.000e+00
   O2              0.000e+00   0.000e+00   -42.080   -42.080     0.000     30.40
S(6)          5.740e-05
   SO4-2           5.349e-05   4.442e-05    -4.272    -4.352    -0.081     15.97
   CaSO4           2.590e-06   2.591e-06    -5.587    -5.587     0.000      7.50
   MgSO4           1.194e-06   1.195e-06    -5.923    -5.923     0.000     -7.92
   NaSO4-          1.119e-07   1.068e-07    -6.951    -6.971    -0.020    -19.76
   KSO4-           1.624e-08   1.552e-08    -7.789    -7.809    -0.020     14.15
   HSO4-           4.527e-10   4.319e-10    -9.344    -9.365    -0.020     40.29
   Mg(SO4)2-2      2.095e-10   1.749e-10    -9.679    -9.757    -0.078     -1.87
   CaHSO4+         1.785e-12   1.703e-12   -11.748   -11.769    -0.020     (0)  

------------------------------Saturation indices-------------------------------

  Phase               SI** log IAP   log K(298 K,   1 atm)

  Anhydrite        -3.56     -7.84   -4.28  CaSO4
  Aragonite        -1.46     -9.80   -8.34  CaCO3
  Arcanite        -11.75    -13.63   -1.88  K2SO4
  Calcite          -1.32     -9.80   -8.48  CaCO3
  CO2(g)           -2.16     -3.63   -1.47  CO2
  Dolomite         -3.02    -20.10  -17.08  CaMg(CO3)2
  Epsomite         -6.60     -8.34   -1.74  MgSO4:7H2O
  Gypsum           -3.25     -7.84   -4.58  CaSO4:2H2O
  H2(g)           -22.05    -25.15   -3.10  H2
  H2O(g)           -1.50     -0.00    1.50  H2O
  Halite          -10.33     -8.76    1.57  NaCl
  Hexahydrite      -6.77     -8.34   -1.57  MgSO4:6H2O
  Kieserite        -7.18     -8.34   -1.16  MgSO4:H2O
  Mirabilite      -10.77    -12.01   -1.24  Na2SO4:10H2O
  O2(g)           -39.19    -42.08   -2.89  O2
  Sylvite         -10.47     -9.57    0.90  KCl
  Thenardite      -11.71    -12.01   -0.30  Na2SO4

**For a gas, SI = log10(fugacity). Fugacity = pressure * phi / 1 atm.
  For ideal gases, phi = 1.

------------------
End of simulation.
------------------

------------------------------------
Reading input data for simulation 3.
------------------------------------

	SOLUTION 3  Lake Malawi (Millero, 2000)
	        units   mmol/l
	        pH      7.00
	        temp    25.0
	        Na              0.875
	        Mg              0.3075
	        Ca              0.4525
	        K               0.16
	        Cl              0.14
	        S(6)            0.0775
	        Alkalinity      2.32 #(2.309 + 2 * 0.0055)
	END
-------------------------------------------
Beginning of initial solution calculations.
-------------------------------------------

Initial solution 3.	Lake Malawi (Millero, 2000)

-----------------------------Solution composition------------------------------

	Elements           Molality       Moles

	Alkalinity        2.320e-03   2.320e-03
	Ca                4.526e-04   4.526e-04
	Cl                1.400e-04   1.400e-04
	K                 1.600e-04   1.600e-04
	Mg                3.076e-04   3.076e-04
	Na                8.752e-04   8.752e-04
	S(6)              7.751e-05   7.751e-05

----------------------------Description of solution----------------------------

                                       pH  =   7.000    
                                       pe  =   4.000    
      Specific Conductance (µS/cm,  25°C)  = 252
                          Density (g/cm³)  =   0.99721
                               Volume (L)  =   1.00303
                        Viscosity (mPa s)  =   0.89165
                        Activity of water  =   1.000
                 Ionic strength (mol/kgw)  =   3.359e-03
                       Mass of water (kg)  =   1.000e+00
                    Total carbon (mol/kg)  =   2.804e-03
                       Total CO2 (mol/kg)  =   2.804e-03
                         Temperature (°C)  =  25.00
                  Electrical balance (eq)  =  -6.001e-05
 Percent error, 100*(Cat-|An|)/(Cat+|An|)  =  -1.18
                               Iterations  =   7
                                  Total H  = 1.110147e+02
                                  Total O  = 5.551445e+01

----------------------------Distribution of species----------------------------

                                               Log       Log       Log    mole V
   Species          Molality    Activity  Molality  Activity     Gamma   cm³/mol

   OH-             1.079e-07   1.012e-07    -6.967    -6.995    -0.028     -4.08
   H+              1.060e-07   1.000e-07    -6.975    -7.000    -0.025      0.00
   H2O             5.551e+01   9.999e-01     1.744    -0.000     0.000     18.07
C(4)          2.804e-03
   HCO3-           2.298e-03   2.161e-03    -2.639    -2.665    -0.027     24.60
   CO2             4.856e-04   4.858e-04    -3.314    -3.314     0.000     34.43
   CaHCO3+         1.004e-05   9.442e-06    -4.998    -5.025    -0.027      9.69
   MgHCO3+         6.276e-06   5.892e-06    -5.202    -5.230    -0.027      5.50
   NaHCO3          1.541e-06   1.543e-06    -5.812    -5.812     0.001     31.73
   CO3-2           1.297e-06   1.013e-06    -5.887    -5.994    -0.107     -3.83
   CaCO3           5.826e-07   5.831e-07    -6.235    -6.234     0.000    -14.60
   MgCO3           2.252e-07   2.253e-07    -6.648    -6.647     0.000    -17.09
   KHCO3           1.447e-07   1.447e-07    -6.840    -6.840     0.000     41.03
   (CO2)2          4.329e-09   4.332e-09    -8.364    -8.363     0.000     68.87
Ca            4.526e-04
   Ca+2            4.386e-04   3.425e-04    -3.358    -3.465    -0.107    -18.05
   CaHCO3+         1.004e-05   9.442e-06    -4.998    -5.025    -0.027      9.69
   CaSO4           3.320e-06   3.322e-06    -5.479    -5.479     0.000      7.50
   CaCO3           5.826e-07   5.831e-07    -6.235    -6.234     0.000    -14.60
   CaOH+           6.055e-10   5.684e-10    -9.218    -9.245    -0.027     (0)  
   CaHSO4+         2.326e-12   2.184e-12   -11.633   -11.661    -0.027     (0)  
Cl            1.400e-04
   Cl-             1.400e-04   1.314e-04    -3.854    -3.881    -0.028     18.10
   HCl             4.512e-12   4.527e-12   -11.346   -11.344     0.001     (0)  
H(0)          1.415e-25
   H2              7.074e-26   7.079e-26   -25.150   -25.150     0.000     28.61
K             1.600e-04
   K+              1.598e-04   1.499e-04    -3.797    -3.824    -0.028      9.03
   KHCO3           1.447e-07   1.447e-07    -6.840    -6.840     0.000     41.03
   KSO4-           1.321e-07   1.244e-07    -6.879    -6.905    -0.026     14.16
Mg            3.076e-04
   Mg+2            2.977e-04   2.330e-04    -3.526    -3.633    -0.106    -21.74
   MgHCO3+         6.276e-06   5.892e-06    -5.202    -5.230    -0.027      5.50
   MgSO4           3.323e-06   3.328e-06    -5.478    -5.478     0.001     -7.92
   MgCO3           2.252e-07   2.253e-07    -6.648    -6.647     0.000    -17.09
   MgOH+           8.989e-09   8.461e-09    -8.046    -8.073    -0.026     (0)  
   Mg(SO4)2-2      7.601e-10   5.980e-10    -9.119    -9.223    -0.104      1.25
Na            8.752e-04
   Na+             8.728e-04   8.199e-04    -3.059    -3.086    -0.027     -1.44
   NaHCO3          1.541e-06   1.543e-06    -5.812    -5.812     0.001     31.73
   NaSO4-          7.743e-07   7.280e-07    -6.111    -6.138    -0.027    -18.27
   NaOH            8.292e-21   8.298e-21   -20.081   -20.081     0.000     (0)  
O(0)          0.000e+00
   O2              0.000e+00   0.000e+00   -42.080   -42.080     0.000     30.40
S(6)          7.751e-05
   SO4-2           6.996e-05   5.455e-05    -4.155    -4.263    -0.108     16.51
   MgSO4           3.323e-06   3.328e-06    -5.478    -5.478     0.001     -7.92
   CaSO4           3.320e-06   3.322e-06    -5.479    -5.479     0.000      7.50
   NaSO4-          7.743e-07   7.280e-07    -6.111    -6.138    -0.027    -18.27
   KSO4-           1.321e-07   1.244e-07    -6.879    -6.905    -0.026     14.16
   Mg(SO4)2-2      7.601e-10   5.980e-10    -9.119    -9.223    -0.104      1.25
   HSO4-           5.649e-10   5.303e-10    -9.248    -9.275    -0.027     40.30
   CaHSO4+         2.326e-12   2.184e-12   -11.633   -11.661    -0.027     (0)  

------------------------------Saturation indices-------------------------------

  Phase               SI** log IAP   log K(298 K,   1 atm)

  Anhydrite        -3.45     -7.73   -4.28  CaSO4
  Aragonite        -1.12     -9.46   -8.34  CaCO3
  Arcanite        -10.03    -11.91   -1.88  K2SO4
  Calcite          -0.98     -9.46   -8.48  CaCO3
  CO2(g)           -1.85     -3.31   -1.47  CO2
  Dolomite         -2.00    -19.09  -17.08  CaMg(CO3)2
  Epsomite         -6.16     -7.90   -1.74  MgSO4:7H2O
  Gypsum           -3.15     -7.73   -4.58  CaSO4:2H2O
  H2(g)           -22.05    -25.15   -3.10  H2
  H2O(g)           -1.50     -0.00    1.50  H2O
  Halite           -8.54     -6.97    1.57  NaCl
  Hexahydrite      -6.33     -7.90   -1.57  MgSO4:6H2O
  Kieserite        -6.73     -7.90   -1.16  MgSO4:H2O
  Mirabilite       -9.20    -10.44   -1.24  Na2SO4:10H2O
  O2(g)           -39.19    -42.08   -2.89  O2
  Sylvite          -8.61     -7.71    0.90  KCl
  Thenardite      -10.14    -10.44   -0.30  Na2SO4

**For a gas, SI = log10(fugacity). Fugacity = pressure * phi / 1 atm.
  For ideal gases, phi = 1.

------------------
End of simulation.
------------------

------------------------------------
Reading input data for simulation 4.
------------------------------------

	SOLUTION 4  Lake Tanganyika (Millero, 2000)
	        units   mmol/l
	        pH      7.00
	        temp    25.0
	        Na              2.72
	        Mg              1.65
	        Ca              0.27
	        K               0.82
	        Cl              0.62
	        S(6)            0.06
	        Alkalinity      6.52
	END
-------------------------------------------
Beginning of initial solution calculations.
-------------------------------------------

Initial solution 4.	Lake Tanganyika (Millero, 2000)

-----------------------------Solution composition------------------------------

	Elements           Molality       Moles

	Alkalinity        6.523e-03   6.523e-03
	Ca                2.701e-04   2.701e-04
	Cl                6.203e-04   6.203e-04
	K                 8.204e-04   8.204e-04
	Mg                1.651e-03   1.651e-03
	Na                2.721e-03   2.721e-03
	S(6)              6.003e-05   6.003e-05

----------------------------Description of solution----------------------------

                                       pH  =   7.000    
                                       pe  =   4.000    
      Specific Conductance (µS/cm,  25°C)  = 669
                          Density (g/cm³)  =   0.99749
                               Volume (L)  =   1.00315
                        Viscosity (mPa s)  =   0.89385
                        Activity of water  =   1.000
                 Ionic strength (mol/kgw)  =   9.051e-03
                       Mass of water (kg)  =   1.000e+00
                    Total carbon (mol/kg)  =   7.822e-03
                       Total CO2 (mol/kg)  =   7.822e-03
                         Temperature (°C)  =  25.00
                  Electrical balance (eq)  =   1.201e-04
 Percent error, 100*(Cat-|An|)/(Cat+|An|)  =   0.84
                               Iterations  =   9
                                  Total H  = 1.110189e+02
                                  Total O  = 5.552862e+01

----------------------------Distribution of species----------------------------

                                               Log       Log       Log    mole V
   Species          Molality    Activity  Molality  Activity     Gamma   cm³/mol

   OH-             1.119e-07   1.012e-07    -6.951    -6.995    -0.044     -4.04
   H+              1.091e-07   1.000e-07    -6.962    -7.000    -0.038      0.00
   H2O             5.551e+01   9.998e-01     1.744    -0.000     0.000     18.07
C(4)          7.822e-03
   HCO3-           6.399e-03   5.816e-03    -2.194    -2.235    -0.042     24.64
   CO2             1.306e-03   1.308e-03    -2.884    -2.883     0.001     34.43
   MgHCO3+         8.033e-05   7.274e-05    -4.095    -4.138    -0.043      5.53
   CaHCO3+         1.413e-05   1.286e-05    -4.850    -4.891    -0.041      9.72
   NaHCO3          1.239e-05   1.244e-05    -4.907    -4.905     0.002     31.73
   CO3-2           3.998e-06   2.727e-06    -5.398    -5.564    -0.166     -3.69
   MgCO3           2.776e-06   2.782e-06    -5.557    -5.556     0.001    -17.09
   KHCO3           1.922e-06   1.922e-06    -5.716    -5.716     0.000     41.03
   CaCO3           7.924e-07   7.941e-07    -6.101    -6.100     0.001    -14.60
   (CO2)2          3.133e-08   3.140e-08    -7.504    -7.503     0.001     68.87
Ca            2.701e-04
   Ca+2            2.542e-04   1.733e-04    -3.595    -3.761    -0.166    -17.94
   CaHCO3+         1.413e-05   1.286e-05    -4.850    -4.891    -0.041      9.72
   CaSO4           1.004e-06   1.006e-06    -5.998    -5.997     0.001      7.50
   CaCO3           7.924e-07   7.941e-07    -6.101    -6.100     0.001    -14.60
   CaOH+           3.174e-10   2.876e-10    -9.498    -9.541    -0.043     (0)  
   CaHSO4+         7.300e-13   6.613e-13   -12.137   -12.180    -0.043     (0)  
Cl            6.203e-04
   Cl-             6.203e-04   5.613e-04    -3.207    -3.251    -0.043     18.13
   HCl             1.916e-11   1.934e-11   -10.717   -10.714     0.004     (0)  
H(0)          1.413e-25
   H2              7.065e-26   7.079e-26   -25.151   -25.150     0.001     28.61
K             8.204e-04
   K+              8.181e-04   7.399e-04    -3.087    -3.131    -0.044      9.06
   KHCO3           1.922e-06   1.922e-06    -5.716    -5.716     0.000     41.03
   KSO4-           4.028e-07   3.675e-07    -6.395    -6.435    -0.040     14.19
Mg            1.651e-03
   Mg+2            1.559e-03   1.069e-03    -2.807    -2.971    -0.164    -21.63
   MgHCO3+         8.033e-05   7.274e-05    -4.095    -4.138    -0.043      5.53
   MgSO4           9.098e-06   9.136e-06    -5.041    -5.039     0.002     -7.92
   MgCO3           2.776e-06   2.782e-06    -5.557    -5.556     0.001    -17.09
   MgOH+           4.257e-08   3.880e-08    -7.371    -7.411    -0.040     (0)  
   Mg(SO4)2-2      1.416e-09   9.823e-10    -8.849    -9.008    -0.159      6.35
Na            2.721e-03
   Na+             2.708e-03   2.456e-03    -2.567    -2.610    -0.042     -1.39
   NaHCO3          1.239e-05   1.244e-05    -4.907    -4.905     0.002     31.73
   NaSO4-          1.436e-06   1.305e-06    -5.843    -5.884    -0.041    -15.45
   NaOH            2.480e-20   2.486e-20   -19.605   -19.605     0.001     (0)  
O(0)          0.000e+00
   O2              0.000e+00   0.000e+00   -42.081   -42.080     0.001     30.40
S(6)          6.003e-05
   SO4-2           4.809e-05   3.264e-05    -4.318    -4.486    -0.168     17.73
   MgSO4           9.098e-06   9.136e-06    -5.041    -5.039     0.002     -7.92
   NaSO4-          1.436e-06   1.305e-06    -5.843    -5.884    -0.041    -15.45
   CaSO4           1.004e-06   1.006e-06    -5.998    -5.997     0.001      7.50
   KSO4-           4.028e-07   3.675e-07    -6.395    -6.435    -0.040     14.19
   Mg(SO4)2-2      1.416e-09   9.823e-10    -8.849    -9.008    -0.159      6.35
   HSO4-           3.503e-10   3.174e-10    -9.455    -9.498    -0.043     40.34
   CaHSO4+         7.300e-13   6.613e-13   -12.137   -12.180    -0.043     (0)  

------------------------------Saturation indices-------------------------------

  Phase               SI** log IAP   log K(298 K,   1 atm)

  Anhydrite        -3.97     -8.25   -4.28  CaSO4
  Aragonite        -0.99     -9.33   -8.34  CaCO3
  Arcanite         -8.87    -10.75   -1.88  K2SO4
  Calcite          -0.85     -9.33   -8.48  CaCO3
  CO2(g)           -1.42     -2.88   -1.47  CO2
  Dolomite         -0.78    -17.86  -17.08  CaMg(CO3)2
  Epsomite         -5.72     -7.46   -1.74  MgSO4:7H2O
  Gypsum           -3.67     -8.25   -4.58  CaSO4:2H2O
  H2(g)           -22.05    -25.15   -3.10  H2
  H2O(g)           -1.50     -0.00    1.50  H2O
  Halite           -7.43     -5.86    1.57  NaCl
  Hexahydrite      -5.89     -7.46   -1.57  MgSO4:6H2O
  Kieserite        -6.30     -7.46   -1.16  MgSO4:H2O
  Mirabilite       -8.47     -9.71   -1.24  Na2SO4:10H2O
  O2(g)           -39.19    -42.08   -2.89  O2
  Sylvite          -7.28     -6.38    0.90  KCl
  Thenardite       -9.41     -9.71   -0.30  Na2SO4

**For a gas, SI = log10(fugacity). Fugacity = pressure * phi / 1 atm.
  For ideal gases, phi = 1.

------------------
End of simulation.
------------------

------------------------------------
Reading input data for simulation 5.
------------------------------------

	SOLUTION 5  Artificial river water (Millero et al., 1976)
	        units   ppm
	        pH      7.6
	        temp    25.0
	        Na              6.3
	        Mg              4.1
	        Ca              15.0
	        K               2.3
	        Cl              7.8
	        S(6)            11.2 as SO4
	        Alkalinity      58.0 as HCO3
	        N(5)            1.0 as NO3
	END
-------------------------------------------
Beginning of initial solution calculations.
-------------------------------------------

Initial solution 5.	Artificial river water (Millero et al., 1976)

-----------------------------Solution composition------------------------------

	Elements           Molality       Moles

	Alkalinity        9.506e-04   9.506e-04
	Ca                3.743e-04   3.743e-04
	Cl                2.200e-04   2.200e-04
	K                 5.883e-05   5.883e-05
	Mg                1.687e-04   1.687e-04
	N(5)              1.613e-05   1.613e-05
	Na                2.741e-04   2.741e-04
	S(6)              1.166e-04   1.166e-04

----------------------------Description of solution----------------------------

                                       pH  =   7.600    
                                       pe  =   4.000    
      Specific Conductance (µS/cm,  25°C)  = 153
                          Density (g/cm³)  =   0.99713
                               Volume (L)  =   1.00299
                        Viscosity (mPa s)  =   0.89117
                        Activity of water  =   1.000
                 Ionic strength (mol/kgw)  =   2.035e-03
                       Mass of water (kg)  =   1.000e+00
                    Total carbon (mol/kg)  =   9.976e-04
                       Total CO2 (mol/kg)  =   9.976e-04
                         Temperature (°C)  =  25.00
                  Electrical balance (eq)  =  -1.197e-06
 Percent error, 100*(Cat-|An|)/(Cat+|An|)  =  -0.04
                               Iterations  =   8
                                  Total H  = 1.110134e+02
                                  Total O  = 5.550967e+01

----------------------------Distribution of species----------------------------

                                               Log       Log       Log    mole V
   Species          Molality    Activity  Molality  Activity     Gamma   cm³/mol

   OH-             4.237e-07   4.029e-07    -6.373    -6.395    -0.022     -4.09
   H+              2.632e-08   2.512e-08    -7.580    -7.600    -0.020      0.00
   H2O             5.551e+01   1.000e+00     1.744    -0.000     0.000     18.07
C(4)          9.976e-04
   HCO3-           9.387e-04   8.938e-04    -3.027    -3.049    -0.021     24.59
   CO2             5.046e-05   5.048e-05    -4.297    -4.297     0.000     34.43
   CaHCO3+         3.591e-06   3.421e-06    -5.445    -5.466    -0.021      9.68
   CO3-2           2.030e-06   1.669e-06    -5.692    -5.778    -0.085     -3.88
   MgHCO3+         1.482e-06   1.410e-06    -5.829    -5.851    -0.022      5.49
   CaCO3           8.405e-07   8.409e-07    -6.075    -6.075     0.000    -14.60
   MgCO3           2.145e-07   2.146e-07    -6.669    -6.668     0.000    -17.09
   NaHCO3          2.024e-07   2.026e-07    -6.694    -6.693     0.000     31.73
   KHCO3           2.229e-08   2.230e-08    -7.652    -7.652     0.000     41.03
   (CO2)2          4.675e-11   4.677e-11   -10.330   -10.330     0.000     68.87
Ca            3.743e-04
   Ca+2            3.651e-04   3.000e-04    -3.438    -3.523    -0.085    -18.10
   CaSO4           4.738e-06   4.740e-06    -5.324    -5.324     0.000      7.50
   CaHCO3+         3.591e-06   3.421e-06    -5.445    -5.466    -0.021      9.68
   CaCO3           8.405e-07   8.409e-07    -6.075    -6.075     0.000    -14.60
   CaOH+           2.083e-09   1.982e-09    -8.681    -8.703    -0.022     (0)  
   CaHSO4+         8.227e-13   7.826e-13   -12.085   -12.106    -0.022     (0)  
Cl            2.200e-04
   Cl-             2.200e-04   2.093e-04    -3.658    -3.679    -0.022     18.09
   HCl             1.807e-12   1.811e-12   -11.743   -11.742     0.001     (0)  
H(0)          8.929e-27
   H2              4.465e-27   4.467e-27   -26.350   -26.350     0.000     28.61
K             5.883e-05
   K+              5.873e-05   5.584e-05    -4.231    -4.253    -0.022      9.02
   KSO4-           7.923e-08   7.550e-08    -7.101    -7.122    -0.021     14.15
   KHCO3           2.229e-08   2.230e-08    -7.652    -7.652     0.000     41.03
Mg            1.687e-04
   Mg+2            1.638e-04   1.348e-04    -3.786    -3.870    -0.085    -21.78
   MgSO4           3.133e-06   3.136e-06    -5.504    -5.504     0.000     -7.92
   MgHCO3+         1.482e-06   1.410e-06    -5.829    -5.851    -0.022      5.49
   MgCO3           2.145e-07   2.146e-07    -6.669    -6.668     0.000    -17.09
   MgOH+           2.045e-08   1.948e-08    -7.689    -7.710    -0.021     (0)  
   Mg(SO4)2-2      1.112e-09   9.177e-10    -8.954    -9.037    -0.083     -1.24
N(5)          1.613e-05
   NO3-            1.613e-05   1.533e-05    -4.792    -4.814    -0.022     29.50
Na            2.741e-04
   Na+             2.735e-04   2.602e-04    -3.563    -3.585    -0.022     -1.46
   NaSO4-          3.953e-07   3.764e-07    -6.403    -6.424    -0.021    -19.47
   NaHCO3          2.024e-07   2.026e-07    -6.694    -6.693     0.000     31.73
   NaOH            1.048e-20   1.049e-20   -19.980   -19.979     0.000     (0)  
O(0)          4.176e-40
   O2              2.088e-40   2.089e-40   -39.680   -39.680     0.000     30.40
S(6)          1.166e-04
   SO4-2           1.083e-04   8.885e-05    -3.966    -4.051    -0.086     16.07
   CaSO4           4.738e-06   4.740e-06    -5.324    -5.324     0.000      7.50
   MgSO4           3.133e-06   3.136e-06    -5.504    -5.504     0.000     -7.92
   NaSO4-          3.953e-07   3.764e-07    -6.403    -6.424    -0.021    -19.47
   KSO4-           7.923e-08   7.550e-08    -7.101    -7.122    -0.021     14.15
   Mg(SO4)2-2      1.112e-09   9.177e-10    -8.954    -9.037    -0.083     -1.24
   HSO4-           2.281e-10   2.170e-10    -9.642    -9.664    -0.022     40.29
   CaHSO4+         8.227e-13   7.826e-13   -12.085   -12.106    -0.022     (0)  

------------------------------Saturation indices-------------------------------

  Phase               SI** log IAP   log K(298 K,   1 atm)

  Anhydrite        -3.30     -7.57   -4.28  CaSO4
  Aragonite        -0.96     -9.30   -8.34  CaCO3
  Arcanite        -10.68    -12.56   -1.88  K2SO4
  Calcite          -0.82     -9.30   -8.48  CaCO3
  CO2(g)           -2.83     -4.30   -1.47  CO2
  Dolomite         -1.86    -18.95  -17.08  CaMg(CO3)2
  Epsomite         -6.18     -7.92   -1.74  MgSO4:7H2O
  Gypsum           -2.99     -7.57   -4.58  CaSO4:2H2O
  H2(g)           -23.25    -26.35   -3.10  H2
  H2O(g)           -1.50     -0.00    1.50  H2O
  Halite           -8.83     -7.26    1.57  NaCl
  Hexahydrite      -6.36     -7.92   -1.57  MgSO4:6H2O
  Kieserite        -6.76     -7.92   -1.16  MgSO4:H2O
  Mirabilite       -9.98    -11.22   -1.24  Na2SO4:10H2O
  O2(g)           -36.79    -39.68   -2.89  O2
  Sylvite          -8.83     -7.93    0.90  KCl
  Thenardite      -10.92    -11.22   -0.30  Na2SO4

**For a gas, SI = log10(fugacity). Fugacity = pressure * phi / 1 atm.
  For ideal gases, phi = 1.

------------------
End of simulation.
------------------

------------------------------------
Reading input data for simulation 6.
------------------------------------

