   Input file: mmb
  Output file: mmb.out
Database file: phreeqc.dat

------------------
Reading data base.
------------------

	SOLUTION_MASTER_SPECIES
	SOLUTION_SPECIES
	PHASES
	EXCHANGE_MASTER_SPECIES
	EXCHANGE_SPECIES
	SURFACE_MASTER_SPECIES
	SURFACE_SPECIES
	RATES
	END
------------------------------------
Reading input data for simulation 1.
------------------------------------

	USER_PRINT
	 start
	  5 print 'solution =', cell_no
	 10 print 'EB =', charge_balance, 'total water', edl("water") + tot("water"), -la("H+"), 'Na =', tot("Na"), 'Cl =', tot("Cl")
	 20 print 'sys_Ca =', sys("Ca"), 'a_Ca =', act("Ca+2"), 'a_Na =', act("Na+")
	 end
	KNOBS
	 step_size 10
	 pe_step_size 5
	 iterations 5000
	 diagonal_scale true
	SOLUTION 0
	 Ca 1e-3
	 Na 1
	 Cl 1 charge
	 water 1#0.61609 # fresh outer solution
	SURFACE_MASTER_SPECIES
	 Su Su-
	SURFACE_SPECIES
	 Su- = Su-
	 log_k 0
	END
-------------------------------------------
Beginning of initial solution calculations.
-------------------------------------------

Initial solution 0.	

----------------------------------User print-----------------------------------

solution =            0 
EB =  -1.9868e-13 total water            1            7 Na =   1.0000e-03 Cl =   1.0020e-03 
sys_Ca =   1.0000e-06 a_Ca =   8.6862e-07 a_Na =   9.6514e-04 

-----------------------------Solution composition------------------------------

	Elements           Molality       Moles

	Ca                1.000e-06   1.000e-06
	Cl                1.002e-03   1.002e-03  Charge balance
	Na                1.000e-03   1.000e-03

----------------------------Description of solution----------------------------

                                       pH  =   7.000    
                                       pe  =   4.000    
                        Activity of water  =   1.000
                           Ionic strength  =   1.003e-03
                       Mass of water (kg)  =   1.000e+00
                 Total alkalinity (eq/kg)  =   3.678e-10
                    Total carbon (mol/kg)  =   0.000e+00
                       Total CO2 (mol/kg)  =   0.000e+00
                      Temperature (deg C)  =  25.000
                  Electrical balance (eq)  =  -1.987e-13
 Percent error, 100*(Cat-|An|)/(Cat+|An|)  =   0.00
                               Iterations  =   6
                                  Total H  = 1.110124e+02
                                  Total O  = 5.550622e+01

----------------------------Distribution of species----------------------------

                                                   Log       Log         Log 
   Species                 Molality    Activity  Molality  Activity     Gamma

   OH-                    1.038e-07   1.001e-07    -6.984    -7.000    -0.016
   H+                     1.035e-07   1.000e-07    -6.985    -7.000    -0.015
   H2O                    5.551e+01   1.000e+00     1.744     0.000     0.000
Ca               1.000e-06
   Ca+2                   1.000e-06   8.686e-07    -6.000    -6.061    -0.061
   CaOH+                  1.494e-12   1.442e-12   -11.826   -11.841    -0.015
Cl               1.002e-03
   Cl-                    1.002e-03   9.668e-04    -2.999    -3.015    -0.016
H(0)             1.416e-25
   H2                     7.078e-26   7.079e-26   -25.150   -25.150     0.000
Na               1.000e-03
   Na+                    1.000e-03   9.651e-04    -3.000    -3.015    -0.015
   NaOH                   6.375e-11   6.376e-11   -10.196   -10.195     0.000
O(0)             0.000e+00
   O2                     0.000e+00   0.000e+00   -42.080   -42.080     0.000

------------------------------Saturation indices-------------------------------

	Phase               SI log IAP  log KT

	H2(g)           -22.00  -25.15   -3.15  H2
	H2O(g)           -1.51    0.00    1.51  H2O
	Halite           -7.61   -6.03    1.58  NaCl
	O2(g)           -39.12  -42.08   -2.96  O2

------------------
End of simulation.
------------------

------------------------------------
Reading input data for simulation 2.
------------------------------------

	SOLUTION 1-20
	 Na 500
	 Cl 500 charge
	 water 0.61609
	SURFACE 1-20
	 Su 0.1 1e6 1
	 equilibrate 1
	 donnan 3.8391e-10
	 only_counter_ions
	END
-------------------------------------------
Beginning of initial solution calculations.
-------------------------------------------

Initial solution 1.	

----------------------------------User print-----------------------------------

solution =            1 
EB =  -1.5305e-11 total water   6.1609e-01            7 Na =   5.0000e-01 Cl =   5.0000e-01 
sys_Ca =            0 a_Ca =   1.0000e-99 a_Na =   3.5460e-01 

-----------------------------Solution composition------------------------------

	Elements           Molality       Moles

	Cl                5.000e-01   3.080e-01  Charge balance
	Na                5.000e-01   3.080e-01

----------------------------Description of solution----------------------------

                                       pH  =   7.000    
                                       pe  =   4.000    
                        Activity of water  =   0.983
                           Ionic strength  =   5.000e-01
                       Mass of water (kg)  =   6.161e-01
                 Total alkalinity (eq/kg)  =   4.523e-08
                    Total carbon (mol/kg)  =   0.000e+00
                       Total CO2 (mol/kg)  =   0.000e+00
                      Temperature (deg C)  =  25.000
                  Electrical balance (eq)  =  -1.530e-11
 Percent error, 100*(Cat-|An|)/(Cat+|An|)  =   0.00
                               Iterations  =   7
                                  Total H  = 6.839365e+01
                                  Total O  = 3.419683e+01

----------------------------Distribution of species----------------------------

                                                   Log       Log         Log 
   Species                 Molality    Activity  Molality  Activity     Gamma

   OH-                    1.555e-07   9.841e-08    -6.808    -7.007    -0.199
   H+                     1.308e-07   1.000e-07    -6.883    -7.000    -0.117
   H2O                    5.551e+01   9.830e-01     1.744    -0.007     0.000
Cl               5.000e-01
   Cl-                    5.000e-01   3.219e-01    -0.301    -0.492    -0.191
H(0)             1.262e-25
   H2                     6.310e-26   7.079e-26   -25.200   -25.150     0.050
Na               5.000e-01
   Na+                    5.000e-01   3.546e-01    -0.301    -0.450    -0.149
   NaOH                   2.053e-08   2.303e-08    -7.688    -7.638     0.050
O(0)             0.000e+00
   O2                     0.000e+00   0.000e+00   -42.145   -42.095     0.050

------------------------------Saturation indices-------------------------------

	Phase               SI log IAP  log KT

	H2(g)           -22.00  -25.15   -3.15  H2
	H2O(g)           -1.52   -0.01    1.51  H2O
	Halite           -2.52   -0.94    1.58  NaCl
	O2(g)           -39.13  -42.09   -2.96  O2

------------------------------------------------------
Beginning of initial surface-composition calculations.
------------------------------------------------------

Surface 1.	

Su            
	 -6.342e-15  Surface + diffuse layer charge, eq
	 -1.000e-01  Surface charge, eq
	 -9.649e-03  sigma, C/m**2
	 -5.959e-03  psi, V
	  2.319e-01  -F*psi/RT
	  1.261e+00  exp(-F*psi/RT)
	  1.000e+06  specific area, m**2/g
	  1.000e+06  m**2 for   1.000e+00 g

	Water in diffuse layer: 3.839e-01 kg, 100.0% of total DDL-water.

	Total moles in diffuse layer (excluding water), Donnan calculation 

	Element       	     Moles
	Cl            	  3.0804e-13
	H             	  3.4038e-08
	Na            	  1.0000e-01
	O             	  7.8799e-09

Su            
	  1.000e-01  moles
	                                   Mole                     Log
	Species               Moles    Fraction    Molality    Molality

	Su-               1.000e-01       1.000   1.623e-01      -0.790

-----------------------------------------
Beginning of batch-reaction calculations.
-----------------------------------------

Reaction step 1.

Using solution 1.	
Using surface 1.	Surface assemblage after simulation 2.

----------------------------------User print-----------------------------------

solution =            1 
EB =  -1.5946e-11 total water            1            7 Na =   5.0000e-01 Cl =   5.0000e-01 
sys_Ca =            0 a_Ca =   1.0000e-99 a_Na =   3.5460e-01 

------------------------------Surface composition------------------------------

Su            
	  5.571e-14  Surface + diffuse layer charge, eq
	 -1.000e-01  Surface charge, eq
	 -9.649e-03  sigma, C/m**2
	 -5.959e-03  psi, V
	  2.319e-01  -F*psi/RT
	  1.261e+00  exp(-F*psi/RT)
	  1.000e+06  specific area, m**2/g
	  1.000e+06  m**2 for   1.000e+00 g

	Water in diffuse layer: 3.839e-01 kg, 100.0% of total DDL-water.

	Total moles in diffuse layer (excluding water), Donnan calculation 

	Element       	     Moles
	Cl            	  3.0804e-13
	H             	  3.4038e-08
	Na            	  1.0000e-01
	O             	  7.8799e-09

Su            
	  1.000e-01  moles
	                                   Mole                     Log
	Species               Moles    Fraction    Molality    Molality

	Su-               1.000e-01       1.000   1.623e-01      -0.790

-----------------------------Solution composition------------------------------

	Elements           Molality       Moles

	Cl                5.000e-01   3.080e-01
	Na                5.000e-01   3.080e-01

----------------------------Description of solution----------------------------

                                       pH  =   7.000      Charge balance
                                       pe  =   4.909      Adjusted to redox equilibrium
                        Activity of water  =   0.983
                           Ionic strength  =   5.000e-01
                       Mass of water (kg)  =   6.161e-01
                 Total alkalinity (eq/kg)  =   4.523e-08
                    Total carbon (mol/kg)  =   0.000e+00
                       Total CO2 (mol/kg)  =   0.000e+00
                      Temperature (deg C)  =  25.000
                  Electrical balance (eq)  =  -1.595e-11
 Percent error, 100*(Cat-|An|)/(Cat+|An|)  =   0.00
                               Iterations  =   0
                                  Total H  = 6.839365e+01
                                  Total O  = 3.419683e+01

----------------------------Distribution of species----------------------------

                                                   Log       Log         Log 
   Species                 Molality    Activity  Molality  Activity     Gamma

   OH-                    1.555e-07   9.841e-08    -6.808    -7.007    -0.199
   H+                     1.308e-07   1.000e-07    -6.883    -7.000    -0.117
   H2O                    5.551e+01   9.830e-01     1.744    -0.007     0.000
Cl               5.000e-01
   Cl-                    5.000e-01   3.219e-01    -0.301    -0.492    -0.191
H(0)             1.922e-27
   H2                     9.609e-28   1.078e-27   -27.017   -26.967     0.050
Na               5.000e-01
   Na+                    5.000e-01   3.546e-01    -0.301    -0.450    -0.149
   NaOH                   2.053e-08   2.303e-08    -7.688    -7.638     0.050
O(0)             6.177e-39
   O2                     3.089e-39   3.465e-39   -38.510   -38.460     0.050

------------------------------Saturation indices-------------------------------

	Phase               SI log IAP  log KT

	H2(g)           -23.82  -26.97   -3.15  H2
	H2O(g)           -1.52   -0.01    1.51  H2O
	Halite           -2.52   -0.94    1.58  NaCl
	O2(g)           -35.50  -38.46   -2.96  O2

------------------
End of simulation.
------------------

------------------------------------
Reading input data for simulation 3.
------------------------------------

	PRINT
	 reset false
WARNING: No dispersivities were read; disp = 0 assumed.
----------------------------------User print-----------------------------------

solution =            1 
EB =  -1.5946e-11 total water            1            7 Na =   5.0000e-01 Cl =   5.0000e-01 
sys_Ca =            0 a_Ca =   1.0000e-99 a_Na =   3.5460e-01 

----------------------------------User print-----------------------------------

solution =            1 
EB =   1.0793e-08 total water   1.0000e+00   7.1532e+00 Na =   2.9356e-02 Cl =   2.9357e-02 
sys_Ca =   9.6763e-06 a_Ca =   1.6949e-07 a_Na =   2.5042e-02 

----------------------------------User print-----------------------------------

solution =            1 
EB =   1.0983e-08 total water   1.0000e+00   7.6123e+00 Na =   2.5156e-03 Cl =   2.5152e-03 
sys_Ca =   1.5198e-05 a_Ca =   2.9753e-09 a_Na =   2.3816e-03 

----------------------------------User print-----------------------------------

solution =            1 
EB =   1.1196e-08 total water   1.0000e+00   7.6724e+00 Na =   1.0809e-03 Cl =   1.0804e-03 
sys_Ca =   1.8389e-05 a_Ca =   7.1336e-10 a_Na =   1.0419e-03 

----------------------------------User print-----------------------------------

solution =            1 
EB =   1.1475e-08 total water   1.0000e+00   7.5634e+00 Na =   1.0064e-03 Cl =   1.0060e-03 
sys_Ca =   2.1398e-05 a_Ca =   7.2322e-10 a_Na =   9.7125e-04 

----------------------------------User print-----------------------------------

solution =            1 
EB =   1.2614e-08 total water   1.0000e+00   7.4791e+00 Na =   1.0025e-03 Cl =   1.0022e-03 
sys_Ca =   2.4396e-05 a_Ca =   8.1847e-10 a_Na =   9.6754e-04 

----------------------------------User print-----------------------------------

solution =            1 
EB =   1.3101e-08 total water   1.0000e+00   7.4181e+00 Na =   1.0022e-03 Cl =   1.0020e-03 
sys_Ca =   2.7394e-05 a_Ca =   9.1870e-10 a_Na =   9.6731e-04 

----------------------------------User print-----------------------------------

solution =            1 
EB =   1.3721e-08 total water   1.0000e+00   7.3712e+00 Na =   1.0022e-03 Cl =   1.0020e-03 
sys_Ca =   3.0390e-05 a_Ca =   1.0193e-09 a_Na =   9.6727e-04 

----------------------------------User print-----------------------------------

solution =            1 
EB =   1.4495e-08 total water   1.0000e+00   7.3336e+00 Na =   1.0022e-03 Cl =   1.0020e-03 
sys_Ca =   3.3387e-05 a_Ca =   1.1198e-09 a_Na =   9.6725e-04 

