WARNING: Database file from DATABASE keyword is used; command line argument ignored.
   Input file: modifyact
  Output file: modifyact.out
Database file: ../database/phreeqc.dat

------------------
Reading data base.
------------------

	SOLUTION_MASTER_SPECIES
	SOLUTION_SPECIES
	PHASES
	EXCHANGE_MASTER_SPECIES
	EXCHANGE_SPECIES
	SURFACE_MASTER_SPECIES
	SURFACE_SPECIES
	MEAN_GAMMAS
	RATES
	END
------------------------------------
Reading input data for simulation 1.
------------------------------------

	DATABASE ../database/phreeqc.dat
	SELECTED_OUTPUT 101
	    file                 modifyact_101.sel
	USER_PUNCH 101
	    headings Mu SC
	    start
	10 PUNCH STR_F$(MU, 20, 12)
	20 PUNCH STR_F$(SC, 20, 10)
	    end
	SOLUTION 1-6
		units mol/kgw
		pe  -1
		Na  1
		S 0.5
	END
-------------------------------------------
Beginning of initial solution calculations.
-------------------------------------------

Initial solution 1.	

-----------------------------Solution composition------------------------------

	Elements           Molality       Moles

	Na                1.000e+00   1.000e+00
	S                 5.000e-01   5.000e-01

----------------------------Description of solution----------------------------

                                       pH  =   7.000    
                                       pe  =  -1.000    
      Specific Conductance (µS/cm,  25°C)  = 58282
                          Density (g/cm³)  =   1.05728
                               Volume (L)  =   1.01300
                        Viscosity (mPa s)  =   1.10080
                        Activity of water  =   0.980
                 Ionic strength (mol/kgw)  =   8.377e-01
                       Mass of water (kg)  =   1.000e+00
                 Total alkalinity (eq/kg)  =  -3.221e-07
                         Temperature (°C)  =  25.00
                  Electrical balance (eq)  =   3.221e-07
 Percent error, 100*(Cat-|An|)/(Cat+|An|)  =   0.00
                               Iterations  =   8
                                  Total H  = 1.110124e+02
                                  Total O  = 5.750622e+01

----------------------------Distribution of species----------------------------

                                               Log       Log       Log    mole V
   Species          Molality    Activity  Molality  Activity     Gamma   cm³/mol

   OH-             1.675e-07   9.920e-08    -6.776    -7.003    -0.227     -2.36
   H+              1.336e-07   1.000e-07    -6.874    -7.000    -0.126      0.00
   H2O             5.551e+01   9.801e-01     1.744    -0.009     0.000     18.07
H(0)          1.168e-15
   H2              5.838e-16   7.079e-16   -15.234   -15.150     0.084     28.61
Na            1.000e+00
   Na+             6.689e-01   4.835e-01    -0.175    -0.316    -0.141     -0.40
   NaSO4-          3.311e-01   2.209e-01    -0.480    -0.656    -0.176     10.20
O(0)          0.000e+00
   O2              0.000e+00   0.000e+00   -62.181   -62.097     0.084     30.40
S(-2)         3.272e-23
   HS-             2.293e-23   1.358e-23   -22.640   -22.867    -0.227     21.44
   H2S             9.792e-24   1.188e-23   -23.009   -22.925     0.084     36.27
   S-2             9.139e-29   1.640e-29   -28.039   -28.785    -0.746     (0)  
   (H2S)2          0.000e+00   0.000e+00   -47.213   -47.129     0.084     30.09
S(6)          5.000e-01
   NaSO4-          3.311e-01   2.209e-01    -0.480    -0.656    -0.176     10.20
   SO4-2           1.689e-01   2.806e-02    -0.772    -1.552    -0.779     40.99
   HSO4-           3.560e-07   2.728e-07    -6.449    -6.564    -0.116     41.04

------------------------------Saturation indices-------------------------------

  Phase               SI** log IAP   log K(298 K,   1 atm)

  H2(g)           -12.05    -15.15   -3.10  H2
  H2O(g)           -1.51     -0.01    1.50  H2O
  H2S(g)          -21.93    -29.87   -7.94  H2S
  Mirabilite       -1.03     -2.27   -1.24  Na2SO4:10H2O
  O2(g)           -59.21    -62.10   -2.89  O2
  Sulfur          -15.81    -10.93    4.88  S
  Thenardite       -1.88     -2.18   -0.30  Na2SO4

**For a gas, SI = log10(fugacity). Fugacity = pressure * phi / 1 atm.
  For ideal gases, phi = 1.

------------------
End of simulation.
------------------

------------------------------------
Reading input data for simulation 2.
------------------------------------

	SOLUTION_MODIFY 2
	    -totals
		Na	2
		S       1
	END
------------------
End of simulation.
------------------

------------------------------------
Reading input data for simulation 3.
------------------------------------

	SOLUTION_MODIFY 3
	    -totals
		Na	2
		S       1
	    -activities
	    	S    -7
	END
------------------
End of simulation.
------------------

------------------------------------
Reading input data for simulation 4.
------------------------------------

	SOLUTION_MODIFY 4
	    -totals
		Na	2
		S       1
	    -activities
	    	S(6) -2    
	    	S    -7
	END
------------------
End of simulation.
------------------

------------------------------------
Reading input data for simulation 5.
------------------------------------

	SOLUTION_MODIFY 5
	    -totals
		Na	2
		S       1
	    -activities
	    	S    -7
	    	S(6) -2
	    	S(-2) 1
	END
------------------
End of simulation.
------------------

------------------------------------
Reading input data for simulation 6.
------------------------------------

	SOLUTION_MODIFY 6
	    -totals
		Na	2
		S       1
	    -activities
	    	S(6) -2
	    	S(-2) 1
	END
------------------
End of simulation.
------------------

------------------------------------
Reading input data for simulation 7.
------------------------------------

	DUMP 
		-file modifyact.dmp
		-solution 1-6
	END
------------------
End of simulation.
------------------

------------------------------------
Reading input data for simulation 8.
------------------------------------

