WARNING: Database file from DATABASE keyword is used; command line argument ignored.
   Input file: multi_punch
  Output file: multi_punch.out
Database file: ../database/phreeqc.dat

------------------
Reading data base.
------------------

	SOLUTION_MASTER_SPECIES
	SOLUTION_SPECIES
	PHASES
	EXCHANGE_MASTER_SPECIES
	EXCHANGE_SPECIES
	SURFACE_MASTER_SPECIES
	SURFACE_SPECIES
	RATES
	END
------------------------------------
Reading input data for simulation 1.
------------------------------------

	DATABASE ../database/phreeqc.dat
	SELECTED_OUTPUT 101
	    file                 multi_punch_101.sel
	USER_PUNCH 101
	    headings Mu SC
	    start
	10 PUNCH STR_F$(MU, 20, 12)
	20 PUNCH STR_F$(SC, 20, 10)
	    end
	SOLUTION 1
		pH      7 charge
		Na	1
		Cl	1
		Ca	1
		C	  2
	END
-------------------------------------------
Beginning of initial solution calculations.
-------------------------------------------

Initial solution 1.	

-----------------------------Solution composition------------------------------

	Elements           Molality       Moles

	C                 2.000e-03   2.000e-03
	Ca                1.000e-03   1.000e-03
	Cl                1.000e-03   1.000e-03
	Na                1.000e-03   1.000e-03

----------------------------Description of solution----------------------------

                                       pH  =   8.125      Charge balance
                                       pe  =   4.000    
      Specific Conductance (µS/cm,  25°C)  = 304
                          Density (g/cm³)  =   0.99722
                               Volume (L)  =   1.00301
                        Activity of water  =   1.000
                 Ionic strength (mol/kgw)  =   3.935e-03
                       Mass of water (kg)  =   1.000e+00
                 Total alkalinity (eq/kg)  =   2.000e-03
                       Total CO2 (mol/kg)  =   2.000e-03
                         Temperature (°C)  =  25.00
                  Electrical balance (eq)  =   1.630e-18
 Percent error, 100*(Cat-|An|)/(Cat+|An|)  =   0.00
                               Iterations  =   7
                                  Total H  = 1.110144e+02
                                  Total O  = 5.551219e+01

----------------------------Distribution of species----------------------------

                                               Log       Log       Log    mole V
   Species          Molality    Activity  Molality  Activity     Gamma   cm³/mol

   OH-             1.445e-06   1.349e-06    -5.840    -5.870    -0.030     -4.07
   H+              7.985e-09   7.503e-09    -8.098    -8.125    -0.027      0.00
   H2O             5.551e+01   9.999e-01     1.744    -0.000     0.000     18.07
C(-4)         0.000e+00
   CH4             0.000e+00   0.000e+00   -77.126   -77.125     0.000     35.46
C(4)          2.000e-03
   HCO3-           1.922e-03   1.798e-03    -2.716    -2.745    -0.029     24.72
   CO2             3.032e-05   3.034e-05    -4.518    -4.518     0.000     34.43
   CaHCO3+         1.818e-05   1.703e-05    -4.740    -4.769    -0.028      9.70
   CO3-2           1.465e-05   1.124e-05    -4.834    -4.949    -0.115     -5.15
   CaCO3           1.400e-05   1.401e-05    -4.854    -4.854     0.000    -14.60
   NaHCO3          9.436e-07   9.445e-07    -6.025    -6.025     0.000      1.80
   NaCO3-          2.092e-07   1.955e-07    -6.679    -6.709    -0.030     -0.99
   (CO2)2          1.688e-11   1.690e-11   -10.773   -10.772     0.000     68.87
Ca            1.000e-03
   Ca+2            9.678e-04   7.420e-04    -3.014    -3.130    -0.115    -18.04
   CaHCO3+         1.818e-05   1.703e-05    -4.740    -4.769    -0.028      9.70
   CaCO3           1.400e-05   1.401e-05    -4.854    -4.854     0.000    -14.60
   CaOH+           1.756e-08   1.641e-08    -7.755    -7.785    -0.030     (0)  
Cl            1.000e-03
   Cl-             1.000e-03   9.339e-04    -3.000    -3.030    -0.030     18.10
H(0)          7.965e-28
   H2              3.982e-28   3.986e-28   -27.400   -27.399     0.000     28.61
Na            1.000e-03
   Na+             9.988e-04   9.339e-04    -3.001    -3.030    -0.029     -1.43
   NaHCO3          9.436e-07   9.445e-07    -6.025    -6.025     0.000      1.80
   NaCO3-          2.092e-07   1.955e-07    -6.679    -6.709    -0.030     -0.99
   NaOH            1.259e-19   1.260e-19   -18.900   -18.900     0.000     (0)  
O(0)          5.242e-38
   O2              2.621e-38   2.623e-38   -37.582   -37.581     0.000     30.40

------------------------------Saturation indices-------------------------------

  Phase               SI** log IAP   log K(298 K,   1 atm)

  Aragonite         0.26     -8.08   -8.34  CaCO3
  Calcite           0.40     -8.08   -8.48  CaCO3
  CH4(g)          -74.32    -77.13   -2.80  CH4
  CO2(g)           -3.05     -4.52   -1.47  CO2
  H2(g)           -24.30    -27.40   -3.10  H2
  H2O(g)           -1.50     -0.00    1.50  H2O
  Halite           -7.63     -6.06    1.57  NaCl
  O2(g)           -34.69    -37.58   -2.89  O2

**For a gas, SI = log10(fugacity). Fugacity = pressure * phi / 1 atm.
  For ideal gases, phi = 1.

------------------
End of simulation.
------------------

------------------------------------
Reading input data for simulation 2.
------------------------------------

	CALCULATE_VALUES
	TOTAL_C
	start
	10 save TOT("C")
	end
	END
------------------
End of simulation.
------------------

------------------------------------
Reading input data for simulation 3.
------------------------------------

	EQUILIBRIUM_PHASES 1
		CO2(g) -2
		Dolomite 0
	END
------------------
End of simulation.
------------------

------------------------------------
Reading input data for simulation 4.
------------------------------------

	REACTION 1
		HCl 1
		0.1 mmol
	END
------------------
End of simulation.
------------------

------------------------------------
Reading input data for simulation 5.
------------------------------------

	GAS_PHASE
		fixed_volume
		N2(g)	1.2
	END
------------------
End of simulation.
------------------

------------------------------------
Reading input data for simulation 6.
------------------------------------

	KINETICS
		Calcite
			tol    1e-8
			m0	 3.e-3
			m	3.e-3
			parms	1.67e6	  0.6
	END
------------------
End of simulation.
------------------

------------------------------------
Reading input data for simulation 7.
------------------------------------

	SOLID_SOLUTION
	Sulfate
		component 	Anhydrite	1.0
		component	Barite		1.0
	END
------------------
End of simulation.
------------------

------------------------------------
Reading input data for simulation 8.
------------------------------------

	RUN_CELLS
		-cell 1
	SELECTED_OUTPUT 
		file multi_punch_1.sel
		reset false
		simulation
		state
		solution
		distance
		time
		step
		ph
		pe
		reaction
		temperature
		alkalinity
		ionic_strength
		water
		charge_balance
		percent_error
		totals			Na	Ca
		molalities		Na+	HCO3-
		activities		Ca+2	CO3-2
		equilibrium_phases	CO2(g)	dolomite
		saturation_indices	Halite
		gases			N2(g)
		kinetics		Calcite
		solid_solutions	Anhydrite	Barite
		calculate_values       TOTAL_C
		inverse                false
	SELECTED_OUTPUT 2
		file multi_punch_2.sel
		si Halite Calcite
	USER_PUNCH 20
	heading Dummy
	10 PUNCH "Dummy"
	END
--------------------------
Beginning of run as cells.
--------------------------

-----------------------------------------
Beginning of batch-reaction calculations.
-----------------------------------------

Reaction step 1.

Using solution 1.	
Using pure phase assemblage 1.	
Using solid solution assemblage 1.	
Using gas phase 1.	
Using reaction 1.	
Using kinetics 1.	

Reaction 1.	

	  1.000e-04 moles of the following reaction have been added:

	                 Relative
	Reactant            moles

	HCl                  1.00000

	                 Relative
	Element             moles
	Cl                   1.00000
	H                    1.00000

Kinetics 1.	

	Time step: 1 seconds

	Rate name       Delta Moles Total Moles   Reactant        Coefficient

	Calcite           1.275e-06   3.001e-03   Calcite                   1

-----------------------------------Gas phase-----------------------------------

Total pressure:  1.18      atmospheres          (Peng-Robinson calculation)
    Gas volume:   1.00e+00 liters
  Molar volume:   2.07e+01 liters/mole
   P * Vm / RT:  0.99947  (Compressibility Factor Z) 

                                                        Moles in gas
                                            ----------------------------------
Component         log P           P    phi     Initial       Final       Delta

N2(g)              0.07   1.181e+00  0.999   4.907e-02   4.830e-02  -7.789e-04

-------------------------------Phase assemblage--------------------------------

                                                      Moles in assemblage
Phase               SI  log IAP  log K(T, P)   Initial       Final       Delta

CO2(g)           -2.00    -3.47     -1.47    1.000e+01   9.999e+00  -1.279e-03
Dolomite         -0.00   -17.08    -17.08    1.000e+01   9.999e+00  -5.388e-04

--------------------------------Solid solutions--------------------------------


Solid solution                Component        Moles  Delta moles   Mole fract

Sulfate                                     1.99e+00
                              Anhydrite     9.85e-01    -1.49e-02     4.96e-01
                                 Barite     1.00e+00    -6.95e-08     5.04e-01

-----------------------------Solution composition------------------------------

	Elements           Molality       Moles

	Ba                6.951e-08   6.951e-08
	C                 4.355e-03   4.355e-03
	Ca                1.642e-02   1.642e-02
	Cl                1.100e-03   1.100e-03
	Mg                5.388e-04   5.388e-04
	N                 1.558e-03   1.558e-03
	Na                1.000e-03   1.000e-03
	S                 1.488e-02   1.488e-02

----------------------------Description of solution----------------------------

                                       pH  =   7.310      Charge balance
                                       pe  =  -0.343      Adjusted to redox equilibrium
      Specific Conductance (µS/cm,  25°C)  = 2583
                          Density (g/cm³)  =   0.99936
                               Volume (L)  =   1.00307
                        Activity of water  =   0.999
                 Ionic strength (mol/kgw)  =   4.692e-02
                       Mass of water (kg)  =   1.000e+00
                 Total alkalinity (eq/kg)  =   4.053e-03
                       Total CO2 (mol/kg)  =   4.355e-03
                         Temperature (°C)  =  25.00
                           Pressure (atm)  =  1.18
                  Electrical balance (eq)  =   2.144e-11
 Percent error, 100*(Cat-|An|)/(Cat+|An|)  =   0.00
                               Iterations  =  50
                                  Total H  = 1.110145e+02
                                  Total O  = 5.557750e+01

----------------------------Distribution of species----------------------------

                                               Log       Log       Log    mole V
   Species          Molality    Activity  Molality  Activity     Gamma   cm³/mol

   OH-             2.535e-07   2.068e-07    -6.596    -6.684    -0.088     -3.88
   H+              5.713e-08   4.893e-08    -7.243    -7.310    -0.067      0.00
   H2O             5.551e+01   9.994e-01     1.744    -0.000     0.000     18.07
Ba            6.951e-08
   BaSO4           3.580e-08   3.619e-08    -7.446    -7.441     0.005     (0)  
   Ba+2            3.314e-08   1.526e-08    -7.480    -7.816    -0.337    -12.22
   BaHCO3+         5.482e-10   4.522e-10    -9.261    -9.345    -0.084     (0)  
   BaCO3           2.311e-11   2.336e-11   -10.636   -10.631     0.005    -10.70
   BaOH+           1.274e-14   1.056e-14   -13.895   -13.976    -0.081     (0)  
C(-4)         1.497e-35
   CH4             1.497e-35   1.513e-35   -34.825   -34.820     0.005     35.46
C(4)          4.355e-03
   HCO3-           3.715e-03   3.091e-03    -2.430    -2.510    -0.080     24.96
   CO2             3.365e-04   3.402e-04    -3.473    -3.468     0.005     34.43
   CaHCO3+         2.610e-04   2.184e-04    -3.583    -3.661    -0.077      9.79
   CaCO3           2.727e-05   2.757e-05    -4.564    -4.560     0.005    -14.60
   MgHCO3+         7.476e-06   6.133e-06    -5.126    -5.212    -0.086      5.61
   CO3-2           6.181e-06   2.963e-06    -5.209    -5.528    -0.319     -4.55
   NaHCO3          1.390e-06   1.405e-06    -5.857    -5.852     0.005      1.80
   MgCO3           4.744e-07   4.795e-07    -6.324    -6.319     0.005    -17.09
   NaCO3-          5.406e-08   4.459e-08    -7.267    -7.351    -0.084     -0.64
   (CO2)2          2.101e-09   2.124e-09    -8.678    -8.673     0.005     68.87
   BaHCO3+         5.482e-10   4.522e-10    -9.261    -9.345    -0.084     (0)  
   BaCO3           2.311e-11   2.336e-11   -10.636   -10.631     0.005    -10.70
Ca            1.642e-02
   Ca+2            1.152e-02   5.538e-03    -1.938    -2.257    -0.318    -17.63
   CaSO4           4.609e-03   4.659e-03    -2.336    -2.332     0.005      7.50
   CaHCO3+         2.610e-04   2.184e-04    -3.583    -3.661    -0.077      9.79
   CaCO3           2.727e-05   2.757e-05    -4.564    -4.560     0.005    -14.60
   CaOH+           2.276e-08   1.877e-08    -7.643    -7.726    -0.084     (0)  
   CaHSO4+         1.817e-09   1.498e-09    -8.741    -8.824    -0.084     (0)  
Cl            1.100e-03
   Cl-             1.100e-03   9.003e-04    -2.959    -3.046    -0.087     18.25
H(0)          1.624e-17
   H2              8.120e-18   8.209e-18   -17.090   -17.086     0.005     28.61
Mg            5.388e-04
   Mg+2            3.448e-04   1.696e-04    -3.462    -3.771    -0.308    -21.33
   MgSO4           1.860e-04   1.881e-04    -3.730    -3.726     0.005      5.84
   MgHCO3+         7.476e-06   6.133e-06    -5.126    -5.212    -0.086      5.61
   MgCO3           4.744e-07   4.795e-07    -6.324    -6.319     0.005    -17.09
   MgOH+           1.497e-08   1.258e-08    -7.825    -7.900    -0.076     (0)  
N(-3)         7.832e-15
   NH4+            7.328e-15   5.904e-15   -14.135   -14.229    -0.094     18.11
   NH4SO4-         4.363e-16   3.599e-16   -15.360   -15.444    -0.084     37.90
   NH3             6.803e-17   6.877e-17   -16.167   -16.163     0.005     24.42
N(0)          1.558e-03
   N2              7.789e-04   7.874e-04    -3.109    -3.104     0.005     29.29
N(3)          0.000e+00
   NO2-            0.000e+00   0.000e+00   -48.217   -48.308    -0.091     25.14
N(5)          0.000e+00
   NO3-            0.000e+00   0.000e+00   -62.852   -62.943    -0.091     29.67
Na            1.000e-03
   Na+             9.755e-04   8.081e-04    -3.011    -3.093    -0.082     -1.22
   NaSO4-          2.303e-05   1.916e-05    -4.638    -4.718    -0.080     15.38
   NaHCO3          1.390e-06   1.405e-06    -5.857    -5.852     0.005      1.80
   NaCO3-          5.406e-08   4.459e-08    -7.267    -7.351    -0.084     -0.64
   NaOH            1.653e-20   1.671e-20   -19.782   -19.777     0.005     (0)  
O(0)          0.000e+00
   O2              0.000e+00   0.000e+00   -58.214   -58.209     0.005     30.40
S(-2)         3.090e-32
   HS-             2.297e-32   1.874e-32   -31.639   -31.727    -0.088     20.78
   H2S             7.929e-33   8.015e-33   -32.101   -32.096     0.005     36.27
   S-2             9.799e-38   4.626e-38   -37.009   -37.335    -0.326     (0)  
   (H2S)2          0.000e+00   0.000e+00   -65.475   -65.470     0.005     30.10
S(6)          1.488e-02
   SO4-2           1.006e-02   4.731e-03    -1.997    -2.325    -0.328     15.21
   CaSO4           4.609e-03   4.659e-03    -2.336    -2.332     0.005      7.50
   MgSO4           1.860e-04   1.881e-04    -3.730    -3.726     0.005      5.84
   NaSO4-          2.303e-05   1.916e-05    -4.638    -4.718    -0.080     15.38
   BaSO4           3.580e-08   3.619e-08    -7.446    -7.441     0.005     (0)  
   HSO4-           2.728e-08   2.250e-08    -7.564    -7.648    -0.084     40.45
   CaHSO4+         1.817e-09   1.498e-09    -8.741    -8.824    -0.084     (0)  
   NH4SO4-         4.363e-16   3.599e-16   -15.360   -15.444    -0.084     37.90

------------------------------Saturation indices-------------------------------

  Phase               SI** log IAP   log K(298 K,   1 atm)

  Anhydrite        -0.30     -4.58   -4.28  CaSO4
  Aragonite         0.55     -7.78   -8.34  CaCO3
  Barite           -0.30    -10.14   -9.84  BaSO4
  Calcite           0.69     -7.78   -8.48  CaCO3
  CH4(g)          -32.02    -34.82   -2.80  CH4
  CO2(g)           -2.00     -3.47   -1.47  CO2	 Pressure   0.0 atm, phi 1.000
  Dolomite         -0.00    -17.08  -17.08  CaMg(CO3)2
  Gypsum            0.00     -4.58   -4.58  CaSO4:2H2O
  H2(g)           -13.98    -17.09   -3.10  H2
  H2O(g)           -1.50     -0.00    1.50  H2O
  H2S(g)          -31.10    -39.04   -7.94  H2S
  Halite           -7.71     -6.14    1.57  NaCl
  N2(g)             0.07     -3.10   -3.18  N2	 Pressure   1.2 atm, phi 0.999
  NH3(g)          -17.96    -16.16    1.80  NH3
  O2(g)           -55.32    -58.21   -2.89  O2
  Sulfur          -23.04    -18.16    4.88  S
  Witherite        -4.78    -13.34   -8.56  BaCO3

**For a gas, SI = log10(fugacity). Fugacity = pressure * phi / 1 atm.
  For ideal gases, phi = 1.

------------------
End of simulation.
------------------

------------------------------------
Reading input data for simulation 9.
------------------------------------

	USER_PUNCH 2
	heading DUMMY_1 DUMMY_2
	10 PUNCH "Dummy1", "Dummy2"
	RUN_CELLS
		-cell 1
	SELECTED_OUTPUT 1
		active false
	END
--------------------------
Beginning of run as cells.
--------------------------

-----------------------------------------
Beginning of batch-reaction calculations.
-----------------------------------------

Reaction step 1.

Using solution 1.	Solution after simulation 8.
Using pure phase assemblage 1.	Pure-phase assemblage after simulation 8.
Using solid solution assemblage 1.	Solid solution assemblage after simulation 8
Using gas phase 1.	Gas phase after simulation 8.
Using reaction 1.	
Using kinetics 1.	

Reaction 1.	

	  1.000e-04 moles of the following reaction have been added:

	                 Relative
	Reactant            moles

	HCl                  1.00000

	                 Relative
	Element             moles
	Cl                   1.00000
	H                    1.00000

Kinetics 1.	

	Time step: 1 seconds

	Rate name       Delta Moles Total Moles   Reactant        Coefficient

	Calcite           1.256e-06   3.003e-03   Calcite                   1

-----------------------------------Gas phase-----------------------------------

Total pressure:  1.18      atmospheres          (Peng-Robinson calculation)
    Gas volume:   1.00e+00 liters
  Molar volume:   2.07e+01 liters/mole
   P * Vm / RT:  0.99947  (Compressibility Factor Z) 

                                                        Moles in gas
                                            ----------------------------------
Component         log P           P    phi     Initial       Final       Delta

N2(g)              0.07   1.181e+00  0.999   4.830e-02   4.830e-02   1.347e-08

-------------------------------Phase assemblage--------------------------------

                                                      Moles in assemblage
Phase               SI  log IAP  log K(T, P)   Initial       Final       Delta

CO2(g)           -2.00    -3.47     -1.47    9.999e+00   9.999e+00   6.596e-05
Dolomite         -0.00   -17.08    -17.08    9.999e+00   9.999e+00  -1.740e-05

--------------------------------Solid solutions--------------------------------


Solid solution                Component        Moles  Delta moles   Mole fract

Sulfate                                     1.99e+00
                              Anhydrite     9.85e-01     6.12e-07     4.96e-01
                                 Barite     1.00e+00    -4.84e-11     5.04e-01

-----------------------------Solution composition------------------------------

	Elements           Molality       Moles

	Ba                6.956e-08   6.956e-08
	C                 4.323e-03   4.323e-03
	Ca                1.644e-02   1.644e-02
	Cl                1.200e-03   1.200e-03
	Mg                5.562e-04   5.562e-04
	N                 1.558e-03   1.558e-03
	Na                1.000e-03   1.000e-03
	S                 1.488e-02   1.488e-02

----------------------------Description of solution----------------------------

                                       pH  =   7.307      Charge balance
                                       pe  =   9.481      Adjusted to redox equilibrium
      Specific Conductance (µS/cm,  25°C)  = 2590
                          Density (g/cm³)  =   0.99936
                               Volume (L)  =   1.00307
                        Activity of water  =   0.999
                 Ionic strength (mol/kgw)  =   4.700e-02
                       Mass of water (kg)  =   1.000e+00
                 Total alkalinity (eq/kg)  =   4.020e-03
                       Total CO2 (mol/kg)  =   4.323e-03
                         Temperature (°C)  =  25.00
                           Pressure (atm)  =  1.18
                  Electrical balance (eq)  =   3.901e-11
 Percent error, 100*(Cat-|An|)/(Cat+|An|)  =   0.00
                               Iterations  =  41
                                  Total H  = 1.110146e+02
                                  Total O  = 5.557747e+01

----------------------------Distribution of species----------------------------

                                               Log       Log       Log    mole V
   Species          Molality    Activity  Molality  Activity     Gamma   cm³/mol

   OH-             2.514e-07   2.051e-07    -6.600    -6.688    -0.089     -3.88
   H+              5.761e-08   4.933e-08    -7.239    -7.307    -0.067      0.00
   H2O             5.551e+01   9.994e-01     1.744    -0.000     0.000     18.07
Ba            6.956e-08
   BaSO4           3.580e-08   3.619e-08    -7.446    -7.441     0.005     (0)  
   Ba+2            3.319e-08   1.528e-08    -7.479    -7.816    -0.337    -12.22
   BaHCO3+         5.444e-10   4.490e-10    -9.264    -9.348    -0.084     (0)  
   BaCO3           2.276e-11   2.300e-11   -10.643   -10.638     0.005    -10.70
   BaOH+           1.265e-14   1.049e-14   -13.898   -13.979    -0.082     (0)  
C(-4)         0.000e+00
   CH4             0.000e+00   0.000e+00  -113.388  -113.383     0.005     35.46
C(4)          4.323e-03
   HCO3-           3.684e-03   3.066e-03    -2.434    -2.513    -0.080     24.96
   CO2             3.365e-04   3.402e-04    -3.473    -3.468     0.005     34.43
   CaHCO3+         2.592e-04   2.168e-04    -3.586    -3.664    -0.077      9.79
   CaCO3           2.685e-05   2.715e-05    -4.571    -4.566     0.005    -14.60
   MgHCO3+         7.657e-06   6.281e-06    -5.116    -5.202    -0.086      5.61
   CO3-2           6.082e-06   2.915e-06    -5.216    -5.535    -0.319     -4.55
   NaHCO3          1.378e-06   1.393e-06    -5.861    -5.856     0.005      1.80
   MgCO3           4.817e-07   4.870e-07    -6.317    -6.312     0.005    -17.09
   NaCO3-          5.318e-08   4.386e-08    -7.274    -7.358    -0.084     -0.64
   (CO2)2          2.101e-09   2.124e-09    -8.678    -8.673     0.005     68.87
   BaHCO3+         5.444e-10   4.490e-10    -9.264    -9.348    -0.084     (0)  
   BaCO3           2.276e-11   2.300e-11   -10.643   -10.638     0.005    -10.70
Ca            1.644e-02
   Ca+2            1.154e-02   5.544e-03    -1.938    -2.256    -0.318    -17.63
   CaSO4           4.609e-03   4.659e-03    -2.336    -2.332     0.005      7.50
   CaHCO3+         2.592e-04   2.168e-04    -3.586    -3.664    -0.077      9.79
   CaCO3           2.685e-05   2.715e-05    -4.571    -4.566     0.005    -14.60
   CaOH+           2.260e-08   1.864e-08    -7.646    -7.730    -0.084     (0)  
   CaHSO4+         1.832e-09   1.511e-09    -8.737    -8.821    -0.084     (0)  
Cl            1.200e-03
   Cl-             1.200e-03   9.820e-04    -2.921    -3.008    -0.087     18.25
H(0)          3.714e-37
   H2              1.857e-37   1.877e-37   -36.731   -36.726     0.005     28.61
Mg            5.562e-04
   Mg+2            3.562e-04   1.751e-04    -3.448    -3.757    -0.308    -21.33
   MgSO4           1.919e-04   1.940e-04    -3.717    -3.712     0.005      5.84
   MgHCO3+         7.657e-06   6.281e-06    -5.116    -5.202    -0.086      5.61
   MgCO3           4.817e-07   4.870e-07    -6.317    -6.312     0.005    -17.09
   MgOH+           1.533e-08   1.288e-08    -7.815    -7.890    -0.076     (0)  
N(-3)         0.000e+00
   NH4+            0.000e+00   0.000e+00   -43.592   -43.686    -0.094     18.11
   NH4SO4-         0.000e+00   0.000e+00   -44.818   -44.902    -0.084     37.90
   NH3             0.000e+00   0.000e+00   -45.628   -45.624     0.005     24.42
N(0)          1.558e-03
   N2              7.789e-04   7.874e-04    -3.109    -3.104     0.005     29.29
N(3)          1.738e-19
   NO2-            1.738e-19   1.409e-19   -18.760   -18.851    -0.091     25.14
N(5)          1.763e-14
   NO3-            1.763e-14   1.430e-14   -13.754   -13.845    -0.091     29.67
Na            1.000e-03
   Na+             9.756e-04   8.081e-04    -3.011    -3.093    -0.082     -1.22
   NaSO4-          2.300e-05   1.914e-05    -4.638    -4.718    -0.080     15.38
   NaHCO3          1.378e-06   1.393e-06    -5.861    -5.856     0.005      1.80
   NaCO3-          5.318e-08   4.386e-08    -7.274    -7.358    -0.084     -0.64
   NaOH            1.639e-20   1.657e-20   -19.785   -19.781     0.005     (0)  
O(0)          2.336e-19
   O2              1.168e-19   1.181e-19   -18.932   -18.928     0.005     30.40
S(-2)         0.000e+00
   HS-             0.000e+00   0.000e+00  -110.199  -110.287    -0.089     20.78
   H2S             0.000e+00   0.000e+00  -110.657  -110.652     0.005     36.27
   S-2             0.000e+00   0.000e+00  -115.572  -115.898    -0.326     (0)  
   (H2S)2          0.000e+00   0.000e+00  -222.587  -222.583     0.005     30.10
S(6)          1.488e-02
   SO4-2           1.006e-02   4.726e-03    -1.997    -2.326    -0.328     15.21
   CaSO4           4.609e-03   4.659e-03    -2.336    -2.332     0.005      7.50
   MgSO4           1.919e-04   1.940e-04    -3.717    -3.712     0.005      5.84
   NaSO4-          2.300e-05   1.914e-05    -4.638    -4.718    -0.080     15.38
   BaSO4           3.580e-08   3.619e-08    -7.446    -7.441     0.005     (0)  
   HSO4-           2.748e-08   2.266e-08    -7.561    -7.645    -0.084     40.45
   CaHSO4+         1.832e-09   1.511e-09    -8.737    -8.821    -0.084     (0)  
   NH4SO4-         0.000e+00   0.000e+00   -44.818   -44.902    -0.084     37.90

------------------------------Saturation indices-------------------------------

  Phase               SI** log IAP   log K(298 K,   1 atm)

  Anhydrite        -0.30     -4.58   -4.28  CaSO4
  Aragonite         0.54     -7.79   -8.34  CaCO3
  Barite           -0.30    -10.14   -9.84  BaSO4
  Calcite           0.69     -7.79   -8.48  CaCO3
  CH4(g)         -110.58   -113.38   -2.80  CH4
  CO2(g)           -2.00     -3.47   -1.47  CO2	 Pressure   0.0 atm, phi 1.000
  Dolomite         -0.00    -17.08  -17.08  CaMg(CO3)2
  Gypsum            0.00     -4.58   -4.58  CaSO4:2H2O
  H2(g)           -33.63    -36.73   -3.10  H2
  H2O(g)           -1.50     -0.00    1.50  H2O
  H2S(g)         -109.66   -117.59   -7.94  H2S
  Halite           -7.67     -6.10    1.57  NaCl
  N2(g)             0.07     -3.10   -3.18  N2	 Pressure   1.2 atm, phi 0.999
  NH3(g)          -47.42    -45.62    1.80  NH3
  O2(g)           -16.04    -18.93   -2.89  O2
  Sulfur          -81.96    -77.08    4.88  S
  Witherite        -4.79    -13.35   -8.56  BaCO3

**For a gas, SI = log10(fugacity). Fugacity = pressure * phi / 1 atm.
  For ideal gases, phi = 1.

------------------
End of simulation.
------------------

-------------------------------------
Reading input data for simulation 10.
-------------------------------------

	RUN_CELLS
		-cell 1
	SELECTED_OUTPUT 1
		active true
	END
--------------------------
Beginning of run as cells.
--------------------------

-----------------------------------------
Beginning of batch-reaction calculations.
-----------------------------------------

Reaction step 1.

Using solution 1.	Solution after simulation 9.
Using pure phase assemblage 1.	Pure-phase assemblage after simulation 9.
Using solid solution assemblage 1.	Solid solution assemblage after simulation 9
Using gas phase 1.	Gas phase after simulation 9.
Using reaction 1.	
Using kinetics 1.	

Reaction 1.	

	  1.000e-04 moles of the following reaction have been added:

	                 Relative
	Reactant            moles

	HCl                  1.00000

	                 Relative
	Element             moles
	Cl                   1.00000
	H                    1.00000

Kinetics 1.	

	Time step: 1 seconds

	Rate name       Delta Moles Total Moles   Reactant        Coefficient

	Calcite           1.237e-06   3.004e-03   Calcite                   1

-----------------------------------Gas phase-----------------------------------

Total pressure:  1.18      atmospheres          (Peng-Robinson calculation)
    Gas volume:   1.00e+00 liters
  Molar volume:   2.07e+01 liters/mole
   P * Vm / RT:  0.99947  (Compressibility Factor Z) 

                                                        Moles in gas
                                            ----------------------------------
Component         log P           P    phi     Initial       Final       Delta

N2(g)              0.07   1.181e+00  0.999   4.830e-02   4.830e-02   1.371e-08

-------------------------------Phase assemblage--------------------------------

                                                      Moles in assemblage
Phase               SI  log IAP  log K(T, P)   Initial       Final       Delta

CO2(g)           -2.00    -3.47     -1.47    9.999e+00   9.999e+00   6.553e-05
Dolomite         -0.00   -17.08    -17.08    9.999e+00   9.999e+00  -1.761e-05

--------------------------------Solid solutions--------------------------------


Solid solution                Component        Moles  Delta moles   Mole fract

Sulfate                                     1.99e+00
                              Anhydrite     9.85e-01     5.83e-07     4.96e-01
                                 Barite     1.00e+00    -4.91e-11     5.04e-01

-----------------------------Solution composition------------------------------

	Elements           Molality       Moles

	Ba                6.961e-08   6.961e-08
	C                 4.291e-03   4.291e-03
	Ca                1.645e-02   1.645e-02
	Cl                1.300e-03   1.300e-03
	Mg                5.738e-04   5.738e-04
	N                 1.558e-03   1.558e-03
	Na                1.000e-03   1.000e-03
	S                 1.488e-02   1.488e-02

----------------------------Description of solution----------------------------

                                       pH  =   7.303      Charge balance
                                       pe  =   9.482      Adjusted to redox equilibrium
      Specific Conductance (µS/cm,  25°C)  = 2597
                          Density (g/cm³)  =   0.99937
                               Volume (L)  =   1.00307
                        Activity of water  =   0.999
                 Ionic strength (mol/kgw)  =   4.708e-02
                       Mass of water (kg)  =   1.000e+00
                 Total alkalinity (eq/kg)  =   3.988e-03
                       Total CO2 (mol/kg)  =   4.291e-03
                         Temperature (°C)  =  25.00
                           Pressure (atm)  =  1.18
                  Electrical balance (eq)  =   6.021e-11
 Percent error, 100*(Cat-|An|)/(Cat+|An|)  =   0.00
                               Iterations  =  36
                                  Total H  = 1.110147e+02
                                  Total O  = 5.557744e+01

----------------------------Distribution of species----------------------------

                                               Log       Log       Log    mole V
   Species          Molality    Activity  Molality  Activity     Gamma   cm³/mol

   OH-             2.494e-07   2.034e-07    -6.603    -6.692    -0.089     -3.88
   H+              5.809e-08   4.974e-08    -7.236    -7.303    -0.067      0.00
   H2O             5.551e+01   9.994e-01     1.744    -0.000     0.000     18.07
Ba            6.961e-08
   BaSO4           3.580e-08   3.619e-08    -7.446    -7.441     0.005     (0)  
   Ba+2            3.325e-08   1.529e-08    -7.478    -7.815    -0.337    -12.22
   BaHCO3+         5.406e-10   4.458e-10    -9.267    -9.351    -0.084     (0)  
   BaCO3           2.241e-11   2.266e-11   -10.649   -10.645     0.005    -10.70
   BaOH+           1.257e-14   1.041e-14   -13.901   -13.982    -0.082     (0)  
C(-4)         0.000e+00
   CH4             0.000e+00   0.000e+00  -113.363  -113.358     0.005     35.46
C(4)          4.291e-03
   HCO3-           3.655e-03   3.041e-03    -2.437    -2.517    -0.080     24.96
   CO2             3.365e-04   3.402e-04    -3.473    -3.468     0.005     34.43
   CaHCO3+         2.574e-04   2.153e-04    -3.589    -3.667    -0.078      9.79
   CaCO3           2.645e-05   2.674e-05    -4.578    -4.573     0.005    -14.60
   MgHCO3+         7.838e-06   6.429e-06    -5.106    -5.192    -0.086      5.61
   CO3-2           5.986e-06   2.868e-06    -5.223    -5.542    -0.320     -4.55
   NaHCO3          1.367e-06   1.382e-06    -5.864    -5.860     0.005      1.80
   MgCO3           4.891e-07   4.944e-07    -6.311    -6.306     0.005    -17.09
   NaCO3-          5.232e-08   4.315e-08    -7.281    -7.365    -0.084     -0.64
   (CO2)2          2.101e-09   2.124e-09    -8.678    -8.673     0.005     68.87
   BaHCO3+         5.406e-10   4.458e-10    -9.267    -9.351    -0.084     (0)  
   BaCO3           2.241e-11   2.266e-11   -10.649   -10.645     0.005    -10.70
Ca            1.645e-02
   Ca+2            1.156e-02   5.550e-03    -1.937    -2.256    -0.319    -17.63
   CaSO4           4.609e-03   4.659e-03    -2.336    -2.332     0.005      7.50
   CaHCO3+         2.574e-04   2.153e-04    -3.589    -3.667    -0.078      9.79
   CaCO3           2.645e-05   2.674e-05    -4.578    -4.573     0.005    -14.60
   CaOH+           2.244e-08   1.851e-08    -7.649    -7.733    -0.084     (0)  
   CaHSO4+         1.847e-09   1.523e-09    -8.733    -8.817    -0.084     (0)  
Cl            1.300e-03
   Cl-             1.300e-03   1.064e-03    -2.886    -2.973    -0.087     18.25
H(0)          3.768e-37
   H2              1.884e-37   1.905e-37   -36.725   -36.720     0.005     28.61
Mg            5.738e-04
   Mg+2            3.677e-04   1.807e-04    -3.435    -3.743    -0.309    -21.33
   MgSO4           1.978e-04   1.999e-04    -3.704    -3.699     0.005      5.84
   MgHCO3+         7.838e-06   6.429e-06    -5.106    -5.192    -0.086      5.61
   MgCO3           4.891e-07   4.944e-07    -6.311    -6.306     0.005    -17.09
   MgOH+           1.569e-08   1.318e-08    -7.804    -7.880    -0.076     (0)  
N(-3)         0.000e+00
   NH4+            0.000e+00   0.000e+00   -43.579   -43.673    -0.094     18.11
   NH4SO4-         0.000e+00   0.000e+00   -44.806   -44.889    -0.084     37.90
   NH3             0.000e+00   0.000e+00   -45.619   -45.614     0.005     24.42
N(0)          1.558e-03
   N2              7.789e-04   7.874e-04    -3.109    -3.104     0.005     29.29
N(3)          1.688e-19
   NO2-            1.688e-19   1.368e-19   -18.773   -18.864    -0.091     25.14
N(5)          1.687e-14
   NO3-            1.687e-14   1.368e-14   -13.773   -13.864    -0.091     29.67
Na            1.000e-03
   Na+             9.756e-04   8.080e-04    -3.011    -3.093    -0.082     -1.22
   NaSO4-          2.298e-05   1.912e-05    -4.639    -4.719    -0.080     15.38
   NaHCO3          1.367e-06   1.382e-06    -5.864    -5.860     0.005      1.80
   NaCO3-          5.232e-08   4.315e-08    -7.281    -7.365    -0.084     -0.64
   NaOH            1.626e-20   1.644e-20   -19.789   -19.784     0.005     (0)  
O(0)          2.270e-19
   O2              1.135e-19   1.147e-19   -18.945   -18.940     0.005     30.40
S(-2)         0.000e+00
   HS-             0.000e+00   0.000e+00  -110.170  -110.259    -0.089     20.78
   H2S             0.000e+00   0.000e+00  -110.625  -110.621     0.005     36.27
   S-2             0.000e+00   0.000e+00  -115.547  -115.873    -0.326     (0)  
   (H2S)2          0.000e+00   0.000e+00  -222.524  -222.519     0.005     30.10
S(6)          1.488e-02
   SO4-2           1.005e-02   4.721e-03    -1.998    -2.326    -0.328     15.21
   CaSO4           4.609e-03   4.659e-03    -2.336    -2.332     0.005      7.50
   MgSO4           1.978e-04   1.999e-04    -3.704    -3.699     0.005      5.84
   NaSO4-          2.298e-05   1.912e-05    -4.639    -4.719    -0.080     15.38
   BaSO4           3.580e-08   3.619e-08    -7.446    -7.441     0.005     (0)  
   HSO4-           2.768e-08   2.282e-08    -7.558    -7.642    -0.084     40.45
   CaHSO4+         1.847e-09   1.523e-09    -8.733    -8.817    -0.084     (0)  
   NH4SO4-         0.000e+00   0.000e+00   -44.806   -44.889    -0.084     37.90

------------------------------Saturation indices-------------------------------

  Phase               SI** log IAP   log K(298 K,   1 atm)

  Anhydrite        -0.30     -4.58   -4.28  CaSO4
  Aragonite         0.54     -7.80   -8.34  CaCO3
  Barite           -0.30    -10.14   -9.84  BaSO4
  Calcite           0.68     -7.80   -8.48  CaCO3
  CH4(g)         -110.56   -113.36   -2.80  CH4
  CO2(g)           -2.00     -3.47   -1.47  CO2	 Pressure   0.0 atm, phi 1.000
  Dolomite         -0.00    -17.08  -17.08  CaMg(CO3)2
  Gypsum            0.00     -4.58   -4.58  CaSO4:2H2O
  H2(g)           -33.62    -36.72   -3.10  H2
  H2O(g)           -1.50     -0.00    1.50  H2O
  H2S(g)         -109.63   -117.56   -7.94  H2S
  Halite           -7.64     -6.07    1.57  NaCl
  N2(g)             0.07     -3.10   -3.18  N2	 Pressure   1.2 atm, phi 0.999
  NH3(g)          -47.41    -45.61    1.80  NH3
  O2(g)           -16.05    -18.94   -2.89  O2
  Sulfur          -81.93    -77.05    4.88  S
  Witherite        -4.80    -13.36   -8.56  BaCO3

**For a gas, SI = log10(fugacity). Fugacity = pressure * phi / 1 atm.
  For ideal gases, phi = 1.

------------------
End of simulation.
------------------

-------------------------------------
Reading input data for simulation 11.
-------------------------------------

	SOLUTION 2
		pH 7 charge
	END
-------------------------------------------
Beginning of initial solution calculations.
-------------------------------------------

Initial solution 2.	

-----------------------------Solution composition------------------------------

	Elements           Molality       Moles

	Pure water     

----------------------------Description of solution----------------------------

                                       pH  =   6.997      Charge balance
                                       pe  =   4.000    
      Specific Conductance (µS/cm,  25°C)  = 0
                          Density (g/cm³)  =   0.99704
                               Volume (L)  =   1.00297
                        Activity of water  =   1.000
                 Ionic strength (mol/kgw)  =   1.006e-07
                       Mass of water (kg)  =   1.000e+00
                 Total alkalinity (eq/kg)  =   3.040e-17
                         Temperature (°C)  =  25.00
                  Electrical balance (eq)  =  -3.040e-17
 Percent error, 100*(Cat-|An|)/(Cat+|An|)  =  -0.00
                               Iterations  =   2
                                  Total H  = 1.110124e+02
                                  Total O  = 5.550622e+01

----------------------------Distribution of species----------------------------

                                               Log       Log       Log    mole V
   Species          Molality    Activity  Molality  Activity     Gamma   cm³/mol

   OH-             1.006e-07   1.006e-07    -6.997    -6.997    -0.000     -4.14
   H+              1.006e-07   1.006e-07    -6.997    -6.997    -0.000      0.00
   H2O             5.551e+01   1.000e+00     1.744    -0.000     0.000     18.07
H(0)          1.433e-25
   H2              7.166e-26   7.166e-26   -25.145   -25.145     0.000     28.61
O(0)          0.000e+00
   O2              0.000e+00   0.000e+00   -42.090   -42.090     0.000     30.40

------------------------------Saturation indices-------------------------------

  Phase               SI** log IAP   log K(298 K,   1 atm)

  H2(g)           -22.04    -25.14   -3.10  H2
  H2O(g)           -1.50     -0.00    1.50  H2O
  O2(g)           -39.20    -42.09   -2.89  O2

**For a gas, SI = log10(fugacity). Fugacity = pressure * phi / 1 atm.
  For ideal gases, phi = 1.

------------------
End of simulation.
------------------

-------------------------------------
Reading input data for simulation 12.
-------------------------------------

	SOLUTION 3
		pH 7 charge
		Na	1
		Cl	1
	END
-------------------------------------------
Beginning of initial solution calculations.
-------------------------------------------

Initial solution 3.	

-----------------------------Solution composition------------------------------

	Elements           Molality       Moles

	Cl                1.000e-03   1.000e-03
	Na                1.000e-03   1.000e-03

----------------------------Description of solution----------------------------

                                       pH  =   6.997      Charge balance
                                       pe  =   4.000    
      Specific Conductance (µS/cm,  25°C)  = 123
                          Density (g/cm³)  =   0.99708
                               Volume (L)  =   1.00298
                        Activity of water  =   1.000
                 Ionic strength (mol/kgw)  =   1.000e-03
                       Mass of water (kg)  =   1.000e+00
                 Total alkalinity (eq/kg)  =   9.918e-20
                         Temperature (°C)  =  25.00
                  Electrical balance (eq)  =  -1.847e-17
 Percent error, 100*(Cat-|An|)/(Cat+|An|)  =  -0.00
                               Iterations  =   3
                                  Total H  = 1.110124e+02
                                  Total O  = 5.550622e+01

----------------------------Distribution of species----------------------------

                                               Log       Log       Log    mole V
   Species          Molality    Activity  Molality  Activity     Gamma   cm³/mol

   OH-             1.042e-07   1.005e-07    -6.982    -6.998    -0.016     -4.11
   H+              1.042e-07   1.007e-07    -6.982    -6.997    -0.015      0.00
   H2O             5.551e+01   1.000e+00     1.744    -0.000     0.000     18.07
Cl            1.000e-03
   Cl-             1.000e-03   9.649e-04    -3.000    -3.016    -0.016     18.07
H(0)          1.435e-25
   H2              7.177e-26   7.179e-26   -25.144   -25.144     0.000     28.61
Na            1.000e-03
   Na+             1.000e-03   9.652e-04    -3.000    -3.015    -0.015     -1.48
   NaOH            9.699e-21   9.701e-21   -20.013   -20.013     0.000     (0)  
O(0)          0.000e+00
   O2              0.000e+00   0.000e+00   -42.092   -42.092     0.000     30.40

------------------------------Saturation indices-------------------------------

  Phase               SI** log IAP   log K(298 K,   1 atm)

  H2(g)           -22.04    -25.14   -3.10  H2
  H2O(g)           -1.50     -0.00    1.50  H2O
  Halite           -7.60     -6.03    1.57  NaCl
  O2(g)           -39.20    -42.09   -2.89  O2

**For a gas, SI = log10(fugacity). Fugacity = pressure * phi / 1 atm.
  For ideal gases, phi = 1.

------------------
End of simulation.
------------------

-------------------------------------
Reading input data for simulation 13.
-------------------------------------

	SELECTED_OUTPUT 101
		active false
	INVERSE_MODELING
		solutions  2 3
		phases
			Halite
	SELECTED_OUTPUT 3
		reset false
		file multi_punch_3.sel
	END
---------------------------------------------
Beginning of inverse modeling 1 calculations.
---------------------------------------------

Using Cl1 standard precision optimization routine.
WARNING: H(0) is included in solution 2, but is not included as a mass-balance constraint.
WARNING: H(0) is included in solution 3, but is not included as a mass-balance constraint.

Solution 2: 

                         Input          Delta    Input+Delta
     Alkalinity      0.000e+00  +   0.000e+00  =   0.000e+00
             Cl      0.000e+00  +   0.000e+00  =   0.000e+00
             Na      0.000e+00  +   0.000e+00  =   0.000e+00

Solution 3: 

                         Input          Delta    Input+Delta
     Alkalinity      0.000e+00  +   0.000e+00  =   0.000e+00
             Cl      1.000e-03  +   0.000e+00  =   1.000e-03
             Na      1.000e-03  +   0.000e+00  =   1.000e-03

Solution fractions:                   Minimum        Maximum
   Solution   2      1.000e+00      0.000e+00      0.000e+00
   Solution   3      1.000e+00      0.000e+00      0.000e+00

Phase mole transfers:                 Minimum        Maximum   Formula             (Approximate SI in solution 2, 3 at 298 K,   1 atm)
         Halite      1.000e-03      0.000e+00      0.000e+00   NaCl                       (      , -7.60)

Redox mole transfers:    

Sum of residuals (epsilons in documentation):         3.686e-13
Sum of delta/uncertainty limit:                       0.000e+00
Maximum fractional error in element concentration:    0.000e+00

Model contains minimum number of phases.
===============================================================================


Summary of inverse modeling:

	Number of models found: 1
	Number of minimal models found: 1
	Number of infeasible sets of phases saved: 2
	Number of calls to cl1: 6
------------------
End of simulation.
------------------

-------------------------------------
Reading input data for simulation 14.
-------------------------------------

	RUN_CELLS
		-cell 1
--------------------------
Beginning of run as cells.
--------------------------

-----------------------------------------
Beginning of batch-reaction calculations.
-----------------------------------------

Reaction step 1.

Using solution 1.	Solution after simulation 10.
Using pure phase assemblage 1.	Pure-phase assemblage after simulation 10.
Using solid solution assemblage 1.	Solid solution assemblage after simulation 10
Using gas phase 1.	Gas phase after simulation 10.
Using reaction 1.	
Using kinetics 1.	

Reaction 1.	

	  1.000e-04 moles of the following reaction have been added:

	                 Relative
	Reactant            moles

	HCl                  1.00000

	                 Relative
	Element             moles
	Cl                   1.00000
	H                    1.00000

Kinetics 1.	

	Time step: 1 seconds

	Rate name       Delta Moles Total Moles   Reactant        Coefficient

	Calcite           1.219e-06   3.005e-03   Calcite                   1

-----------------------------------Gas phase-----------------------------------

Total pressure:  1.18      atmospheres          (Peng-Robinson calculation)
    Gas volume:   1.00e+00 liters
  Molar volume:   2.07e+01 liters/mole
   P * Vm / RT:  0.99947  (Compressibility Factor Z) 

                                                        Moles in gas
                                            ----------------------------------
Component         log P           P    phi     Initial       Final       Delta

N2(g)              0.07   1.181e+00  0.999   4.830e-02   4.830e-02   1.390e-08

-------------------------------Phase assemblage--------------------------------

                                                      Moles in assemblage
Phase               SI  log IAP  log K(T, P)   Initial       Final       Delta

CO2(g)           -2.00    -3.47     -1.47    9.999e+00   9.999e+00   6.511e-05
Dolomite         -0.00   -17.08    -17.08    9.999e+00   9.999e+00  -1.782e-05

--------------------------------Solid solutions--------------------------------


Solid solution                Component        Moles  Delta moles   Mole fract

Sulfate                                     1.99e+00
                              Anhydrite     9.85e-01     5.54e-07     4.96e-01
                                 Barite     1.00e+00    -4.98e-11     5.04e-01

-----------------------------Solution composition------------------------------

	Elements           Molality       Moles

	Ba                6.966e-08   6.966e-08
	C                 4.260e-03   4.260e-03
	Ca                1.647e-02   1.647e-02
	Cl                1.400e-03   1.400e-03
	Mg                5.916e-04   5.916e-04
	N                 1.558e-03   1.558e-03
	Na                1.000e-03   1.000e-03
	S                 1.488e-02   1.488e-02

----------------------------Description of solution----------------------------

                                       pH  =   7.300      Charge balance
                                       pe  =   9.472      Adjusted to redox equilibrium
      Specific Conductance (µS/cm,  25°C)  = 2604
                          Density (g/cm³)  =   0.99937
                               Volume (L)  =   1.00307
                        Activity of water  =   0.999
                 Ionic strength (mol/kgw)  =   4.716e-02
                       Mass of water (kg)  =   1.000e+00
                 Total alkalinity (eq/kg)  =   3.957e-03
                       Total CO2 (mol/kg)  =   4.260e-03
                         Temperature (°C)  =  25.00
                           Pressure (atm)  =  1.18
                  Electrical balance (eq)  =   8.122e-11
 Percent error, 100*(Cat-|An|)/(Cat+|An|)  =   0.00
                               Iterations  =  36
                                  Total H  = 1.110148e+02
                                  Total O  = 5.557741e+01

----------------------------Distribution of species----------------------------

                                               Log       Log       Log    mole V
   Species          Molality    Activity  Molality  Activity     Gamma   cm³/mol

   OH-             2.475e-07   2.018e-07    -6.606    -6.695    -0.089     -3.88
   H+              5.856e-08   5.014e-08    -7.232    -7.300    -0.067      0.00
   H2O             5.551e+01   9.994e-01     1.744    -0.000     0.000     18.07
Ba            6.966e-08
   BaSO4           3.579e-08   3.619e-08    -7.446    -7.441     0.005     (0)  
   Ba+2            3.330e-08   1.531e-08    -7.478    -7.815    -0.337    -12.22
   BaHCO3+         5.370e-10   4.428e-10    -9.270    -9.354    -0.084     (0)  
   BaCO3           2.208e-11   2.232e-11   -10.656   -10.651     0.005    -10.70
   BaOH+           1.248e-14   1.034e-14   -13.904   -13.985    -0.082     (0)  
C(-4)         0.000e+00
   CH4             0.000e+00   0.000e+00  -113.258  -113.254     0.005     35.46
C(4)          4.260e-03
   HCO3-           3.626e-03   3.017e-03    -2.441    -2.520    -0.080     24.97
   CO2             3.365e-04   3.402e-04    -3.473    -3.468     0.005     34.43
   CaHCO3+         2.557e-04   2.139e-04    -3.592    -3.670    -0.078      9.79
   CaCO3           2.606e-05   2.634e-05    -4.584    -4.579     0.005    -14.60
   MgHCO3+         8.021e-06   6.577e-06    -5.096    -5.182    -0.086      5.61
   CO3-2           5.894e-06   2.822e-06    -5.230    -5.549    -0.320     -4.55
   NaHCO3          1.356e-06   1.371e-06    -5.868    -5.863     0.005      1.80
   MgCO3           4.964e-07   5.018e-07    -6.304    -6.299     0.005    -17.09
   NaCO3-          5.149e-08   4.246e-08    -7.288    -7.372    -0.084     -0.64
   (CO2)2          2.101e-09   2.124e-09    -8.678    -8.673     0.005     68.87
   BaHCO3+         5.370e-10   4.428e-10    -9.270    -9.354    -0.084     (0)  
   BaCO3           2.208e-11   2.232e-11   -10.656   -10.651     0.005    -10.70
Ca            1.647e-02
   Ca+2            1.158e-02   5.557e-03    -1.936    -2.255    -0.319    -17.63
   CaSO4           4.609e-03   4.659e-03    -2.336    -2.332     0.005      7.50
   CaHCO3+         2.557e-04   2.139e-04    -3.592    -3.670    -0.078      9.79
   CaCO3           2.606e-05   2.634e-05    -4.584    -4.579     0.005    -14.60
   CaOH+           2.229e-08   1.838e-08    -7.652    -7.736    -0.084     (0)  
   CaHSO4+         1.862e-09   1.536e-09    -8.730    -8.814    -0.084     (0)  
Cl            1.400e-03
   Cl-             1.400e-03   1.145e-03    -2.854    -2.941    -0.087     18.25
H(0)          4.001e-37
   H2              2.001e-37   2.022e-37   -36.699   -36.694     0.005     28.61
Mg            5.916e-04
   Mg+2            3.794e-04   1.863e-04    -3.421    -3.730    -0.309    -21.33
   MgSO4           2.037e-04   2.060e-04    -3.691    -3.686     0.005      5.84
   MgHCO3+         8.021e-06   6.577e-06    -5.096    -5.182    -0.086      5.61
   MgCO3           4.964e-07   5.018e-07    -6.304    -6.299     0.005    -17.09
   MgOH+           1.605e-08   1.349e-08    -7.794    -7.870    -0.076     (0)  
N(-3)         0.000e+00
   NH4+            0.000e+00   0.000e+00   -43.537   -43.631    -0.094     18.11
   NH4SO4-         0.000e+00   0.000e+00   -44.764   -44.847    -0.084     37.90
   NH3             0.000e+00   0.000e+00   -45.580   -45.575     0.005     24.42
N(0)          1.558e-03
   N2              7.789e-04   7.874e-04    -3.109    -3.104     0.005     29.29
N(3)          1.530e-19
   NO2-            1.530e-19   1.240e-19   -18.815   -18.906    -0.091     25.14
N(5)          1.441e-14
   NO3-            1.441e-14   1.168e-14   -13.841   -13.933    -0.091     29.67
Na            1.000e-03
   Na+             9.757e-04   8.079e-04    -3.011    -3.093    -0.082     -1.22
   NaSO4-          2.295e-05   1.909e-05    -4.639    -4.719    -0.080     15.39
   NaHCO3          1.356e-06   1.371e-06    -5.868    -5.863     0.005      1.80
   NaCO3-          5.149e-08   4.246e-08    -7.288    -7.372    -0.084     -0.64
   NaOH            1.613e-20   1.630e-20   -19.792   -19.788     0.005     (0)  
O(0)          2.013e-19
   O2              1.007e-19   1.018e-19   -18.997   -18.992     0.005     30.40
S(-2)         0.000e+00
   HS-             0.000e+00   0.000e+00  -110.063  -110.152    -0.089     20.78
   H2S             0.000e+00   0.000e+00  -110.515  -110.510     0.005     36.27
   S-2             0.000e+00   0.000e+00  -115.443  -115.770    -0.327     (0)  
   (H2S)2          0.000e+00   0.000e+00  -222.303  -222.298     0.005     30.10
S(6)          1.488e-02
   SO4-2           1.005e-02   4.715e-03    -1.998    -2.326    -0.328     15.21
   CaSO4           4.609e-03   4.659e-03    -2.336    -2.332     0.005      7.50
   MgSO4           2.037e-04   2.060e-04    -3.691    -3.686     0.005      5.84
   NaSO4-          2.295e-05   1.909e-05    -4.639    -4.719    -0.080     15.39
   BaSO4           3.579e-08   3.619e-08    -7.446    -7.441     0.005     (0)  
   HSO4-           2.787e-08   2.298e-08    -7.555    -7.639    -0.084     40.45
   CaHSO4+         1.862e-09   1.536e-09    -8.730    -8.814    -0.084     (0)  
   NH4SO4-         0.000e+00   0.000e+00   -44.764   -44.847    -0.084     37.90

------------------------------Saturation indices-------------------------------

  Phase               SI** log IAP   log K(298 K,   1 atm)

  Anhydrite        -0.30     -4.58   -4.28  CaSO4
  Aragonite         0.53     -7.80   -8.34  CaCO3
  Barite           -0.30    -10.14   -9.84  BaSO4
  Calcite           0.68     -7.80   -8.48  CaCO3
  CH4(g)         -110.45   -113.25   -2.80  CH4
  CO2(g)           -2.00     -3.47   -1.47  CO2	 Pressure   0.0 atm, phi 1.000
  Dolomite         -0.00    -17.08  -17.08  CaMg(CO3)2
  Gypsum            0.00     -4.58   -4.58  CaSO4:2H2O
  H2(g)           -33.59    -36.69   -3.10  H2
  H2O(g)           -1.50     -0.00    1.50  H2O
  H2S(g)         -109.52   -117.45   -7.94  H2S
  Halite           -7.60     -6.03    1.57  NaCl
  N2(g)             0.07     -3.10   -3.18  N2	 Pressure   1.2 atm, phi 0.999
  NH3(g)          -47.37    -45.58    1.80  NH3
  O2(g)           -16.10    -18.99   -2.89  O2
  Sulfur          -81.85    -76.97    4.88  S
  Witherite        -4.80    -13.36   -8.56  BaCO3

**For a gas, SI = log10(fugacity). Fugacity = pressure * phi / 1 atm.
  For ideal gases, phi = 1.

------------------
End of simulation.
------------------

-------------------------------------
Reading input data for simulation 15.
-------------------------------------

