   Input file: mV1_rho
  Output file: mV1_rho.out
Database file: ../database/phreeqc.dat

------------------
Reading data base.
------------------

	SOLUTION_MASTER_SPECIES
	SOLUTION_SPECIES
	PHASES
	EXCHANGE_MASTER_SPECIES
	EXCHANGE_SPECIES
	SURFACE_MASTER_SPECIES
	SURFACE_SPECIES
	RATES
	END
------------------------------------
Reading input data for simulation 1.
------------------------------------

	DATABASE ../database/phreeqc.dat
	SOLUTION_SPECIES
	Na+ = Na+
		gamma	4.0	0.075
		dw	 1.33e-9
		millero -3.46 0.1092 -0.000768 2.698 -0.106 0.001651
		vm -2.15 0.0193 2.23e-4  6.2e-3 0.015 -2.74e-4  -0.9e-3  0.35 # NaCl.xls, Laliberte, 2009. Halite solubility
	K+ = K+
		gamma	3.5	0.015
		dw	 1.96e-9
		millero 7.26 0.0892 -0.000736 2.722 -0.101 0.00151
		vm 7.92 3.56e-2 -1.9e-5  0.356 2.2e-3 -1.4e-4  -1e-3  0.77 # KCl.xls, Laliberte, 2009. 0-125 oC.
	Cl- = Cl-
		gamma	3.5	0.015
		dw	 2.03e-9
		millero 16.37 0.0896 -0.001264 -1.494 0.034 -0.000621
		vm 16.26 0.104 -1.25e-3  0.467 -0.027 2.95e-4  -1e-3  0.04 # 0-100 oC, HCl.xls, Laliberte, 2009. Halite solubility
	USER_PRINT
	 30 put(rho, step_no)
	SOLUTION 1
	REACTION_TEMPERATURE 1
	 0 230 in 21
	END
-------------------------------------------
Beginning of initial solution calculations.
-------------------------------------------

Initial solution 1.	

----------------------------------User print-----------------------------------


-----------------------------Solution composition------------------------------

	Elements           Molality       Moles

	Pure water     

----------------------------Description of solution----------------------------

                                       pH  =   7.000    
                                       pe  =   4.000    
       Specific Conductance (uS/cm, 25 oC) = 0
                          Density (g/cm3)  =   0.99705
                        Activity of water  =   1.000
                           Ionic strength  =   1.002e-07
                       Mass of water (kg)  =   1.000e+00
                 Total alkalinity (eq/kg)  =   2.208e-10
                    Total carbon (mol/kg)  =   0.000e+00
                       Total CO2 (mol/kg)  =   0.000e+00
                      Temperature (deg C)  =  25.00
                  Electrical balance (eq)  =  -2.208e-10
 Percent error, 100*(Cat-|An|)/(Cat+|An|)  =  -0.11
                               Iterations  =   0
                                  Total H  = 1.110124e+02
                                  Total O  = 5.550622e+01

----------------------------Distribution of species----------------------------

                                               Log       Log       Log    mole V
   Species          Molality    Activity  Molality  Activity     Gamma   cm3/mol

   OH-             1.003e-07   1.002e-07    -6.999    -6.999    -0.000     -4.11
   H+              1.001e-07   1.000e-07    -7.000    -7.000    -0.000      0.00
   H2O             5.551e+01   1.000e+00     1.744     0.000     0.000     18.07
H(0)          1.416e-25
   H2              7.079e-26   7.079e-26   -25.150   -25.150     0.000     28.61
O(0)          0.000e+00
   O2              0.000e+00   0.000e+00   -42.080   -42.080     0.000     30.40

------------------------------Saturation indices-------------------------------

	Phase               SI   log IAP   log K(298 K,   1 atm)

	H2(g)           -22.05    -25.15   -3.10  H2
	H2O(g)           -1.50      0.00    1.50  H2O
	O2(g)           -39.19    -42.08   -2.89  O2


-----------------------------------------
Beginning of batch-reaction calculations.
-----------------------------------------

Reaction step 1.

Using solution 1.	
Using temperature 1.	

----------------------------------User print-----------------------------------


-----------------------------Solution composition------------------------------

	Elements           Molality       Moles

	Pure water     

----------------------------Description of solution----------------------------

                                       pH  =   7.481      Charge balance
                                       pe  =  -1.684      Adjusted to redox equilibrium
       Specific Conductance (uS/cm, 0 oC) = 0
                          Density (g/cm3)  =   0.99984
                        Activity of water  =   1.000
                           Ionic strength  =   3.313e-08
                       Mass of water (kg)  =   1.000e+00
                 Total alkalinity (eq/kg)  =   2.208e-10
                    Total carbon (mol/kg)  =   0.000e+00
                       Total CO2 (mol/kg)  =   0.000e+00
                      Temperature (deg C)  =   0.00
                  Electrical balance (eq)  =  -2.208e-10
 Percent error, 100*(Cat-|An|)/(Cat+|An|)  =  -0.33
                               Iterations  =  33
                                  Total H  = 1.110124e+02
                                  Total O  = 5.550622e+01

----------------------------Distribution of species----------------------------

                                               Log       Log       Log    mole V
   Species          Molality    Activity  Molality  Activity     Gamma   cm3/mol

   OH-             3.324e-08   3.323e-08    -7.478    -7.478    -0.000     -6.62
   H+              3.302e-08   3.301e-08    -7.481    -7.481    -0.000      0.00
   H2O             5.551e+01   1.000e+00     1.744    -0.000     0.000     18.02
H(0)          4.726e-15
   H2              2.363e-15   2.363e-15   -14.627   -14.627     0.000     28.65
O(0)          0.000e+00
   O2              0.000e+00   0.000e+00   -71.933   -71.933     0.000     27.49

------------------------------Saturation indices-------------------------------

	Phase               SI   log IAP   log K(273 K,   1 atm)

	H2(g)           -11.62    -14.63   -3.01  H2
	H2O(g)           -2.21     -0.00    2.21  H2O
	O2(g)           -69.27    -71.93   -2.66  O2


Reaction step 2.

Using solution 1.	
Using temperature 1.	

----------------------------------User print-----------------------------------


-----------------------------Solution composition------------------------------

	Elements           Molality       Moles

	Pure water     

----------------------------Description of solution----------------------------

                                       pH  =   7.243      Charge balance
                                       pe  =  -1.475      Adjusted to redox equilibrium
       Specific Conductance (uS/cm, 11 oC) = 0
                          Density (g/cm3)  =   0.99955
                        Activity of water  =   1.000
                           Ionic strength  =   5.722e-08
                       Mass of water (kg)  =   1.000e+00
                 Total alkalinity (eq/kg)  =   2.208e-10
                    Total carbon (mol/kg)  =   0.000e+00
                       Total CO2 (mol/kg)  =   0.000e+00
                      Temperature (deg C)  =  11.50
                  Electrical balance (eq)  =  -2.208e-10
 Percent error, 100*(Cat-|An|)/(Cat+|An|)  =  -0.19
                               Iterations  =  32
                                  Total H  = 1.110124e+02
                                  Total O  = 5.550622e+01

----------------------------Distribution of species----------------------------

                                               Log       Log       Log    mole V
   Species          Molality    Activity  Molality  Activity     Gamma   cm3/mol

   OH-             5.733e-08   5.731e-08    -7.242    -7.242    -0.000     -5.06
   H+              5.711e-08   5.709e-08    -7.243    -7.243    -0.000      0.00
   H2O             5.551e+01   1.000e+00     1.744    -0.000     0.000     18.02
H(0)          4.726e-15
   H2              2.363e-15   2.363e-15   -14.627   -14.627     0.000     28.62
O(0)          0.000e+00
   O2              0.000e+00   0.000e+00   -67.690   -67.690     0.000     29.12

------------------------------Saturation indices-------------------------------

	Phase               SI   log IAP   log K(284 K,   1 atm)

	H2(g)           -11.57    -14.63   -3.06  H2
	H2O(g)           -1.87     -0.00    1.87  H2O
	O2(g)           -64.91    -67.69   -2.78  O2


Reaction step 3.

Using solution 1.	
Using temperature 1.	

----------------------------------User print-----------------------------------


-----------------------------Solution composition------------------------------

	Elements           Molality       Moles

	Pure water     

----------------------------Description of solution----------------------------

                                       pH  =   7.034      Charge balance
                                       pe  =  -1.291      Adjusted to redox equilibrium
       Specific Conductance (uS/cm, 23 oC) = 0
                          Density (g/cm3)  =   0.99754
                        Activity of water  =   1.000
                           Ionic strength  =   9.264e-08
                       Mass of water (kg)  =   1.000e+00
                 Total alkalinity (eq/kg)  =   2.208e-10
                    Total carbon (mol/kg)  =   0.000e+00
                       Total CO2 (mol/kg)  =   0.000e+00
                      Temperature (deg C)  =  23.00
                  Electrical balance (eq)  =  -2.208e-10
 Percent error, 100*(Cat-|An|)/(Cat+|An|)  =  -0.12
                               Iterations  =  32
                                  Total H  = 1.110124e+02
                                  Total O  = 5.550622e+01

----------------------------Distribution of species----------------------------

                                               Log       Log       Log    mole V
   Species          Molality    Activity  Molality  Activity     Gamma   cm3/mol

   OH-             9.275e-08   9.272e-08    -7.033    -7.033    -0.000     -4.21
   H+              9.253e-08   9.250e-08    -7.034    -7.034    -0.000      0.00
   H2O             5.551e+01   1.000e+00     1.744    -0.000     0.000     18.06
H(0)          4.726e-15
   H2              2.363e-15   2.363e-15   -14.627   -14.627     0.000     28.61
O(0)          0.000e+00
   O2              0.000e+00   0.000e+00   -63.777   -63.777     0.000     30.24

------------------------------Saturation indices-------------------------------

	Phase               SI   log IAP   log K(296 K,   1 atm)

	H2(g)           -11.53    -14.63   -3.10  H2
	H2O(g)           -1.55     -0.00    1.55  H2O
	O2(g)           -60.90    -63.78   -2.88  O2


Reaction step 4.

Using solution 1.	
Using temperature 1.	

----------------------------------User print-----------------------------------


-----------------------------Solution composition------------------------------

	Elements           Molality       Moles

	Pure water     

----------------------------Description of solution----------------------------

                                       pH  =   6.848      Charge balance
                                       pe  =  -1.130      Adjusted to redox equilibrium
       Specific Conductance (uS/cm, 34 oC) = 0
                          Density (g/cm3)  =   0.99421
                        Activity of water  =   1.000
                           Ionic strength  =   1.419e-07
                       Mass of water (kg)  =   1.000e+00
                 Total alkalinity (eq/kg)  =   2.208e-10
                    Total carbon (mol/kg)  =   0.000e+00
                       Total CO2 (mol/kg)  =   0.000e+00
                      Temperature (deg C)  =  34.50
                  Electrical balance (eq)  =  -2.208e-10
 Percent error, 100*(Cat-|An|)/(Cat+|An|)  =  -0.08
                               Iterations  =  10
                                  Total H  = 1.110124e+02
                                  Total O  = 5.550622e+01

----------------------------Distribution of species----------------------------

                                               Log       Log       Log    mole V
   Species          Molality    Activity  Molality  Activity     Gamma   cm3/mol

   OH-             1.420e-07   1.420e-07    -6.848    -6.848    -0.000     -3.80
   H+              1.418e-07   1.418e-07    -6.848    -6.848    -0.000      0.00
   H2O             5.551e+01   1.000e+00     1.744    -0.000     0.000     18.12
H(0)          4.726e-15
   H2              2.363e-15   2.363e-15   -14.627   -14.627     0.000     28.60
O(0)          0.000e+00
   O2              0.000e+00   0.000e+00   -60.156   -60.156     0.000     31.07

------------------------------Saturation indices-------------------------------

	Phase               SI   log IAP   log K(307 K,   1 atm)

	H2(g)           -11.51    -14.63   -3.12  H2
	H2O(g)           -1.27     -0.00    1.27  H2O
	O2(g)           -57.20    -60.16   -2.95  O2


Reaction step 5.

Using solution 1.	
Using temperature 1.	

----------------------------------User print-----------------------------------


-----------------------------Solution composition------------------------------

	Elements           Molality       Moles

	Pure water     

----------------------------Description of solution----------------------------

                                       pH  =   6.684      Charge balance
                                       pe  =  -0.988      Adjusted to redox equilibrium
       Specific Conductance (uS/cm, 46 oC) = 0
                          Density (g/cm3)  =   0.98980
                        Activity of water  =   1.000
                           Ionic strength  =   2.073e-07
                       Mass of water (kg)  =   1.000e+00
                 Total alkalinity (eq/kg)  =   2.208e-10
                    Total carbon (mol/kg)  =   0.000e+00
                       Total CO2 (mol/kg)  =   0.000e+00
                      Temperature (deg C)  =  46.00
                  Electrical balance (eq)  =  -2.208e-10
 Percent error, 100*(Cat-|An|)/(Cat+|An|)  =  -0.05
                               Iterations  =  10
                                  Total H  = 1.110124e+02
                                  Total O  = 5.550622e+01

----------------------------Distribution of species----------------------------

                                               Log       Log       Log    mole V
   Species          Molality    Activity  Molality  Activity     Gamma   cm3/mol

   OH-             2.074e-07   2.073e-07    -6.683    -6.683    -0.000     -3.69
   H+              2.072e-07   2.071e-07    -6.684    -6.684    -0.000      0.00
   H2O             5.551e+01   1.000e+00     1.744    -0.000     0.000     18.20
H(0)          4.728e-15
   H2              2.364e-15   2.364e-15   -14.626   -14.626     0.000     28.59
O(0)          0.000e+00
   O2              0.000e+00   0.000e+00   -56.796   -56.796     0.000     31.72

------------------------------Saturation indices-------------------------------

	Phase               SI   log IAP   log K(319 K,   1 atm)

	H2(g)           -11.49    -14.63   -3.13  H2
	H2O(g)           -1.00     -0.00    1.00  H2O
	O2(g)           -53.78    -56.80   -3.01  O2


Reaction step 6.

Using solution 1.	
Using temperature 1.	

----------------------------------User print-----------------------------------


-----------------------------Solution composition------------------------------

	Elements           Molality       Moles

	Pure water     

----------------------------Description of solution----------------------------

                                       pH  =   6.537      Charge balance
                                       pe  =  -0.863      Adjusted to redox equilibrium
       Specific Conductance (uS/cm, 57 oC) = 0
                          Density (g/cm3)  =   0.98448
                        Activity of water  =   1.000
                           Ionic strength  =   2.904e-07
                       Mass of water (kg)  =   1.000e+00
                 Total alkalinity (eq/kg)  =   2.208e-10
                    Total carbon (mol/kg)  =   0.000e+00
                       Total CO2 (mol/kg)  =   0.000e+00
                      Temperature (deg C)  =  57.50
                  Electrical balance (eq)  =  -2.208e-10
 Percent error, 100*(Cat-|An|)/(Cat+|An|)  =  -0.04
                               Iterations  =  10
                                  Total H  = 1.110124e+02
                                  Total O  = 5.550622e+01

----------------------------Distribution of species----------------------------

                                               Log       Log       Log    mole V
   Species          Molality    Activity  Molality  Activity     Gamma   cm3/mol

   OH-             2.906e-07   2.904e-07    -6.537    -6.537    -0.000     -3.84
   H+              2.903e-07   2.901e-07    -6.537    -6.537    -0.000      0.00
   H2O             5.551e+01   1.000e+00     1.744    -0.000     0.000     18.30
H(0)          4.740e-15
   H2              2.370e-15   2.370e-15   -14.625   -14.625     0.000     28.58
O(0)          0.000e+00
   O2              0.000e+00   0.000e+00   -53.672   -53.672     0.000     32.27

------------------------------Saturation indices-------------------------------

	Phase               SI   log IAP   log K(330 K,   1 atm)

	H2(g)           -11.49    -14.63   -3.14  H2
	H2O(g)           -0.76     -0.00    0.76  H2O
	O2(g)           -50.62    -53.67   -3.06  O2


Reaction step 7.

Using solution 1.	
Using temperature 1.	

----------------------------------User print-----------------------------------


-----------------------------Solution composition------------------------------

	Elements           Molality       Moles

	Pure water     

----------------------------Description of solution----------------------------

                                       pH  =   6.407      Charge balance
                                       pe  =  -0.754      Adjusted to redox equilibrium
       Specific Conductance (uS/cm, 69 oC) = 0
                          Density (g/cm3)  =   0.97835
                        Activity of water  =   1.000
                           Ionic strength  =   3.924e-07
                       Mass of water (kg)  =   1.000e+00
                 Total alkalinity (eq/kg)  =   2.208e-10
                    Total carbon (mol/kg)  =   0.000e+00
                       Total CO2 (mol/kg)  =   0.000e+00
                      Temperature (deg C)  =  69.00
                  Electrical balance (eq)  =  -2.208e-10
 Percent error, 100*(Cat-|An|)/(Cat+|An|)  =  -0.03
                               Iterations  =  10
                                  Total H  = 1.110124e+02
                                  Total O  = 5.550622e+01

----------------------------Distribution of species----------------------------

                                               Log       Log       Log    mole V
   Species          Molality    Activity  Molality  Activity     Gamma   cm3/mol

   OH-             3.925e-07   3.922e-07    -6.406    -6.406    -0.000     -4.21
   H+              3.923e-07   3.920e-07    -6.406    -6.407    -0.000      0.00
   H2O             5.551e+01   1.000e+00     1.744    -0.000     0.000     18.41
H(0)          4.784e-15
   H2              2.392e-15   2.392e-15   -14.621   -14.621     0.000     28.58
O(0)          0.000e+00
   O2              0.000e+00   0.000e+00   -50.764   -50.764     0.000     32.75

------------------------------Saturation indices-------------------------------

	Phase               SI   log IAP   log K(342 K,   1 atm)

	H2(g)           -11.48    -14.62   -3.14  H2
	H2O(g)           -0.53     -0.00    0.53  H2O
	O2(g)           -47.68    -50.76   -3.09  O2


Reaction step 8.

Using solution 1.	
Using temperature 1.	

----------------------------------User print-----------------------------------


-----------------------------Solution composition------------------------------

	Elements           Molality       Moles

	Pure water     

----------------------------Description of solution----------------------------

                                       pH  =   6.290      Charge balance
                                       pe  =  -0.653      Adjusted to redox equilibrium
       Specific Conductance (uS/cm, 80 oC) = 0
                          Density (g/cm3)  =   0.97149
                        Activity of water  =   1.000
                           Ionic strength  =   5.134e-07
                       Mass of water (kg)  =   1.000e+00
                 Total alkalinity (eq/kg)  =   2.208e-10
                    Total carbon (mol/kg)  =   0.000e+00
                       Total CO2 (mol/kg)  =   0.000e+00
                      Temperature (deg C)  =  80.50
                  Electrical balance (eq)  =  -2.208e-10
 Percent error, 100*(Cat-|An|)/(Cat+|An|)  =  -0.02
                               Iterations  =  11
                                  Total H  = 1.110124e+02
                                  Total O  = 5.550622e+01

----------------------------Distribution of species----------------------------

                                               Log       Log       Log    mole V
   Species          Molality    Activity  Molality  Activity     Gamma   cm3/mol

   OH-             5.135e-07   5.130e-07    -6.289    -6.290    -0.000     -4.78
   H+              5.133e-07   5.128e-07    -6.290    -6.290    -0.000      0.00
   H2O             5.551e+01   1.000e+00     1.744    -0.000     0.000     18.54
H(0)          4.729e-15
   H2              2.365e-15   2.365e-15   -14.626   -14.626     0.000     28.57
O(0)          0.000e+00
   O2              0.000e+00   0.000e+00   -48.027   -48.027     0.000     33.19

------------------------------Saturation indices-------------------------------

	Phase               SI   log IAP   log K(353 K,   1 atm)

	H2(g)           -11.50    -14.63   -3.13  H2
	H2O(g)           -0.33     -0.00    0.33  H2O
	O2(g)           -44.92    -48.03   -3.11  O2


Reaction step 9.

Using solution 1.	
Using temperature 1.	

----------------------------------User print-----------------------------------


-----------------------------Solution composition------------------------------

	Elements           Molality       Moles

	Pure water     

----------------------------Description of solution----------------------------

                                       pH  =   6.186      Charge balance
                                       pe  =  -0.567      Adjusted to redox equilibrium
       Specific Conductance (uS/cm, 92 oC) = 1
                          Density (g/cm3)  =   0.96396
                        Activity of water  =   1.000
                           Ionic strength  =   6.527e-07
                       Mass of water (kg)  =   1.000e+00
                 Total alkalinity (eq/kg)  =   2.208e-10
                    Total carbon (mol/kg)  =   0.000e+00
                       Total CO2 (mol/kg)  =   0.000e+00
                      Temperature (deg C)  =  92.00
                  Electrical balance (eq)  =  -2.208e-10
 Percent error, 100*(Cat-|An|)/(Cat+|An|)  =  -0.02
                               Iterations  =  11
                                  Total H  = 1.110124e+02
                                  Total O  = 5.550622e+01

----------------------------Distribution of species----------------------------

                                               Log       Log       Log    mole V
   Species          Molality    Activity  Molality  Activity     Gamma   cm3/mol

   OH-             6.528e-07   6.521e-07    -6.185    -6.186    -0.000     -5.56
   H+              6.526e-07   6.519e-07    -6.185    -6.186    -0.000      0.00
   H2O             5.551e+01   1.000e+00     1.744    -0.000     0.000     18.69
H(0)          4.746e-15
   H2              2.373e-15   2.373e-15   -14.625   -14.625     0.000     28.57
O(0)          0.000e+00
   O2              0.000e+00   0.000e+00   -45.476   -45.476     0.000     33.61

------------------------------Saturation indices-------------------------------

	Phase               SI   log IAP   log K(365 K,   1 atm)

	H2(g)           -11.51    -14.62   -3.11  H2
	H2O(g)           -0.13     -0.00    0.13  H2O
	O2(g)           -42.36    -45.48   -3.11  O2


Reaction step 10.

Using solution 1.	
Using temperature 1.	

----------------------------------User print-----------------------------------


-----------------------------Solution composition------------------------------

	Elements           Molality       Moles

	Pure water     

----------------------------Description of solution----------------------------

                                       pH  =   6.093      Charge balance
                                       pe  =  -0.493      Adjusted to redox equilibrium
       Specific Conductance (uS/cm, 103 oC) = 1
                          Density (g/cm3)  =   0.95581
                        Activity of water  =   1.000
                           Ionic strength  =   8.088e-07
                       Mass of water (kg)  =   1.000e+00
                 Total alkalinity (eq/kg)  =   2.208e-10
                    Total carbon (mol/kg)  =   0.000e+00
                       Total CO2 (mol/kg)  =   0.000e+00
                      Temperature (deg C)  = 103.50
                           Pressure (atm)  =  1.13
                  Electrical balance (eq)  =  -2.208e-10
 Percent error, 100*(Cat-|An|)/(Cat+|An|)  =  -0.01
                               Iterations  =  11
                                  Total H  = 1.110124e+02
                                  Total O  = 5.550622e+01

----------------------------Distribution of species----------------------------

                                               Log       Log       Log    mole V
   Species          Molality    Activity  Molality  Activity     Gamma   cm3/mol

   OH-             8.089e-07   8.079e-07    -6.092    -6.093    -0.001     -6.56
   H+              8.087e-07   8.076e-07    -6.092    -6.093    -0.001      0.00
   H2O             5.551e+01   1.000e+00     1.744    -0.000     0.000     18.85
H(0)          4.810e-15
   H2              2.405e-15   2.405e-15   -14.619   -14.619     0.000     28.57
O(0)          0.000e+00
   O2              0.000e+00   0.000e+00   -43.088   -43.088     0.000     34.03

------------------------------Saturation indices-------------------------------

	Phase               SI   log IAP   log K(376 K,   1 atm)

	H2(g)           -11.52    -14.62   -3.09  H2
	H2O(g)            0.05     -0.00   -0.05  H2O
	O2(g)           -39.97    -43.09   -3.11  O2


Reaction step 11.

Using solution 1.	
Using temperature 1.	

----------------------------------User print-----------------------------------


-----------------------------Solution composition------------------------------

	Elements           Molality       Moles

	Pure water     

----------------------------Description of solution----------------------------

                                       pH  =   6.010      Charge balance
                                       pe  =  -0.433      Adjusted to redox equilibrium
       Specific Conductance (uS/cm, 115 oC) = 1
                          Density (g/cm3)  =   0.94708
                        Activity of water  =   1.000
                           Ionic strength  =   9.792e-07
                       Mass of water (kg)  =   1.000e+00
                 Total alkalinity (eq/kg)  =   2.208e-10
                    Total carbon (mol/kg)  =   0.000e+00
                       Total CO2 (mol/kg)  =   0.000e+00
                      Temperature (deg C)  = 115.00
                           Pressure (atm)  =  1.67
                  Electrical balance (eq)  =  -2.208e-10
 Percent error, 100*(Cat-|An|)/(Cat+|An|)  =  -0.01
                               Iterations  =  11
                                  Total H  = 1.110124e+02
                                  Total O  = 5.550622e+01

----------------------------Distribution of species----------------------------

                                               Log       Log       Log    mole V
   Species          Molality    Activity  Molality  Activity     Gamma   cm3/mol

   OH-             9.793e-07   9.779e-07    -6.009    -6.010    -0.001     -7.81
   H+              9.791e-07   9.777e-07    -6.009    -6.010    -0.001      0.00
   H2O             5.551e+01   1.000e+00     1.744    -0.000     0.000     19.02
H(0)          4.980e-15
   H2              2.490e-15   2.490e-15   -14.604   -14.604     0.000     28.57
O(0)          0.000e+00
   O2              0.000e+00   0.000e+00   -40.862   -40.862     0.000     34.45

------------------------------Saturation indices-------------------------------

	Phase               SI   log IAP   log K(388 K,   2 atm)

	H2(g)           -11.53    -14.60   -3.07  H2
	H2O(g)            0.22     -0.00   -0.22  H2O
	O2(g)           -37.76    -40.86   -3.11  O2


Reaction step 12.

Using solution 1.	
Using temperature 1.	

----------------------------------User print-----------------------------------


-----------------------------Solution composition------------------------------

	Elements           Molality       Moles

	Pure water     

----------------------------Description of solution----------------------------

                                       pH  =   5.936      Charge balance
                                       pe  =  -0.362      Adjusted to redox equilibrium
       Specific Conductance (uS/cm, 126 oC) = 2
                          Density (g/cm3)  =   0.93778
                        Activity of water  =   1.000
                           Ionic strength  =   1.161e-06
                       Mass of water (kg)  =   1.000e+00
                 Total alkalinity (eq/kg)  =   2.208e-10
                    Total carbon (mol/kg)  =   0.000e+00
                       Total CO2 (mol/kg)  =   0.000e+00
                      Temperature (deg C)  = 126.50
                           Pressure (atm)  =  2.40
                  Electrical balance (eq)  =  -2.208e-10
 Percent error, 100*(Cat-|An|)/(Cat+|An|)  =  -0.01
                               Iterations  =  11
                                  Total H  = 1.110124e+02
                                  Total O  = 5.550622e+01

----------------------------Distribution of species----------------------------

                                               Log       Log       Log    mole V
   Species          Molality    Activity  Molality  Activity     Gamma   cm3/mol

   OH-             1.161e-06   1.159e-06    -5.935    -5.936    -0.001     -9.33
   H+              1.161e-06   1.159e-06    -5.935    -5.936    -0.001      0.00
   H2O             5.551e+01   1.000e+00     1.744    -0.000     0.000     19.21
H(0)          4.727e-15
   H2              2.363e-15   2.363e-15   -14.626   -14.626     0.000     28.56
O(0)          4.076e-39
   O2              2.038e-39   2.038e-39   -38.691   -38.691     0.000     34.89

------------------------------Saturation indices-------------------------------

	Phase               SI   log IAP   log K(399 K,   2 atm)

	H2(g)           -11.58    -14.63   -3.04  H2
	H2O(g)            0.37     -0.00   -0.37  H2O
	O2(g)           -35.60    -38.69   -3.09  O2


Reaction step 13.

Using solution 1.	
Using temperature 1.	

----------------------------------User print-----------------------------------


-----------------------------Solution composition------------------------------

	Elements           Molality       Moles

	Pure water     

----------------------------Description of solution----------------------------

                                       pH  =   5.871      Charge balance
                                       pe  =  -0.369      Adjusted to redox equilibrium
       Specific Conductance (uS/cm, 138 oC) = 3
                          Density (g/cm3)  =   0.92791
                        Activity of water  =   1.000
                           Ionic strength  =   1.349e-06
                       Mass of water (kg)  =   1.000e+00
                 Total alkalinity (eq/kg)  =   2.208e-10
                    Total carbon (mol/kg)  =   0.000e+00
                       Total CO2 (mol/kg)  =   0.000e+00
                      Temperature (deg C)  = 138.00
                           Pressure (atm)  =  3.37
                  Electrical balance (eq)  =  -2.208e-10
 Percent error, 100*(Cat-|An|)/(Cat+|An|)  =  -0.01
                               Iterations  =  11
                                  Total H  = 1.110124e+02
                                  Total O  = 5.550622e+01

----------------------------Distribution of species----------------------------

                                               Log       Log       Log    mole V
   Species          Molality    Activity  Molality  Activity     Gamma   cm3/mol

   OH-             1.349e-06   1.347e-06    -5.870    -5.871    -0.001    -11.18
   H+              1.349e-06   1.347e-06    -5.870    -5.871    -0.001      0.00
   H2O             5.551e+01   1.000e+00     1.744    -0.000     0.000     19.42
H(0)          6.193e-15
   H2              3.096e-15   3.096e-15   -14.509   -14.509     0.000     28.56
O(0)          2.414e-37
   O2              1.207e-37   1.207e-37   -36.918   -36.918     0.000     35.36

------------------------------Saturation indices-------------------------------

	Phase               SI   log IAP   log K(411 K,   3 atm)

	H2(g)           -11.50    -14.51   -3.01  H2
	H2O(g)            0.52     -0.00   -0.52  H2O
	O2(g)           -33.85    -36.92   -3.07  O2


Reaction step 14.

Using solution 1.	
Using temperature 1.	

----------------------------------User print-----------------------------------


-----------------------------Solution composition------------------------------

	Elements           Molality       Moles

	Pure water     

----------------------------Description of solution----------------------------

                                       pH  =   5.813      Charge balance
                                       pe  =   4.220      Adjusted to redox equilibrium
       Specific Conductance (uS/cm, 149 oC) = 4
                          Density (g/cm3)  =   0.91747
                        Activity of water  =   1.000
                           Ionic strength  =   1.540e-06
                       Mass of water (kg)  =   1.000e+00
                 Total alkalinity (eq/kg)  =   2.208e-10
                    Total carbon (mol/kg)  =   0.000e+00
                       Total CO2 (mol/kg)  =   0.000e+00
                      Temperature (deg C)  = 149.50
                           Pressure (atm)  =  4.64
                  Electrical balance (eq)  =  -2.208e-10
 Percent error, 100*(Cat-|An|)/(Cat+|An|)  =  -0.01
                               Iterations  =   7
                                  Total H  = 1.110124e+02
                                  Total O  = 5.550622e+01

----------------------------Distribution of species----------------------------

                                               Log       Log       Log    mole V
   Species          Molality    Activity  Molality  Activity     Gamma   cm3/mol

   OH-             1.540e-06   1.537e-06    -5.812    -5.813    -0.001    -13.42
   H+              1.540e-06   1.537e-06    -5.813    -5.813    -0.001      0.00
   H2O             5.551e+01   1.000e+00     1.744    -0.000     0.000     19.64
H(0)          5.049e-24
   H2              2.525e-24   2.525e-24   -23.598   -23.598     0.000     28.56
O(0)          2.870e-17
   O2              1.435e-17   1.435e-17   -16.843   -16.843     0.000     35.89

------------------------------Saturation indices-------------------------------

	Phase               SI   log IAP   log K(422 K,   5 atm)

	H2(g)           -20.62    -23.60   -2.98  H2
	H2O(g)            0.65     -0.00   -0.65  H2O
	O2(g)           -13.80    -16.84   -3.04  O2


Reaction step 15.

Using solution 1.	
Using temperature 1.	

----------------------------------User print-----------------------------------


-----------------------------Solution composition------------------------------

	Elements           Molality       Moles

	Pure water     

----------------------------Description of solution----------------------------

                                       pH  =   5.763      Charge balance
                                       pe  =   4.624      Adjusted to redox equilibrium
       Specific Conductance (uS/cm, 161 oC) = 5
                          Density (g/cm3)  =   0.90647
                        Activity of water  =   1.000
                           Ionic strength  =   1.728e-06
                       Mass of water (kg)  =   1.000e+00
                 Total alkalinity (eq/kg)  =   2.208e-10
                    Total carbon (mol/kg)  =   0.000e+00
                       Total CO2 (mol/kg)  =   0.000e+00
                      Temperature (deg C)  = 161.00
                           Pressure (atm)  =  6.26
                  Electrical balance (eq)  =  -2.208e-10
 Percent error, 100*(Cat-|An|)/(Cat+|An|)  =  -0.01
                               Iterations  =   7
                                  Total H  = 1.110124e+02
                                  Total O  = 5.550622e+01

----------------------------Distribution of species----------------------------

                                               Log       Log       Log    mole V
   Species          Molality    Activity  Molality  Activity     Gamma   cm3/mol

   OH-             1.728e-06   1.725e-06    -5.762    -5.763    -0.001    -16.11
   H+              1.728e-06   1.724e-06    -5.762    -5.763    -0.001      0.00
   H2O             5.551e+01   1.000e+00     1.744    -0.000     0.000     19.87
H(0)          9.330e-25
   H2              4.665e-25   4.665e-25   -24.331   -24.331     0.000     28.56
O(0)          5.266e-14
   O2              2.633e-14   2.633e-14   -13.580   -13.580     0.000     36.48

------------------------------Saturation indices-------------------------------

	Phase               SI   log IAP   log K(434 K,   6 atm)

	H2(g)           -21.39    -24.33   -2.94  H2
	H2O(g)            0.78     -0.00   -0.78  H2O
	O2(g)           -10.57    -13.58   -3.01  O2


Reaction step 16.

Using solution 1.	
Using temperature 1.	

----------------------------------User print-----------------------------------


-----------------------------Solution composition------------------------------

	Elements           Molality       Moles

	Pure water     

----------------------------Description of solution----------------------------

                                       pH  =   5.720      Charge balance
                                       pe  =   4.670      Adjusted to redox equilibrium
       Specific Conductance (uS/cm, 172 oC) = 6
                          Density (g/cm3)  =   0.89489
                        Activity of water  =   1.000
                           Ionic strength  =   1.909e-06
                       Mass of water (kg)  =   1.000e+00
                 Total alkalinity (eq/kg)  =   2.208e-10
                    Total carbon (mol/kg)  =   0.000e+00
                       Total CO2 (mol/kg)  =   0.000e+00
                      Temperature (deg C)  = 172.50
                           Pressure (atm)  =  8.31
                  Electrical balance (eq)  =  -2.208e-10
 Percent error, 100*(Cat-|An|)/(Cat+|An|)  =  -0.01
                               Iterations  =   7
                                  Total H  = 1.110124e+02
                                  Total O  = 5.550622e+01

----------------------------Distribution of species----------------------------

                                               Log       Log       Log    mole V
   Species          Molality    Activity  Molality  Activity     Gamma   cm3/mol

   OH-             1.909e-06   1.905e-06    -5.719    -5.720    -0.001    -19.37
   H+              1.909e-06   1.905e-06    -5.719    -5.720    -0.001      0.00
   H2O             5.551e+01   1.000e+00     1.744    -0.000     0.000     20.13
H(0)          8.728e-25
   H2              4.364e-25   4.364e-25   -24.360   -24.360     0.000     28.55
O(0)          3.043e-12
   O2              1.521e-12   1.521e-12   -11.818   -11.818     0.000     37.15

------------------------------Saturation indices-------------------------------

	Phase               SI   log IAP   log K(445 K,   8 atm)

	H2(g)           -21.45    -24.36   -2.91  H2
	H2O(g)            0.90     -0.00   -0.90  H2O
	O2(g)            -8.84    -11.82   -2.98  O2


Reaction step 17.

Using solution 1.	
Using temperature 1.	

----------------------------------User print-----------------------------------


-----------------------------Solution composition------------------------------

	Elements           Molality       Moles

	Pure water     

----------------------------Description of solution----------------------------

                                       pH  =   5.684      Charge balance
                                       pe  =   4.707      Adjusted to redox equilibrium
       Specific Conductance (uS/cm, 184 oC) = 7
                          Density (g/cm3)  =   0.88270
                        Activity of water  =   1.000
                           Ionic strength  =   2.078e-06
                       Mass of water (kg)  =   1.000e+00
                 Total alkalinity (eq/kg)  =   2.208e-10
                    Total carbon (mol/kg)  =   0.000e+00
                       Total CO2 (mol/kg)  =   0.000e+00
                      Temperature (deg C)  = 184.00
                           Pressure (atm)  = 10.86
                  Electrical balance (eq)  =  -2.208e-10
 Percent error, 100*(Cat-|An|)/(Cat+|An|)  =  -0.01
                               Iterations  =   7
                                  Total H  = 1.110124e+02
                                  Total O  = 5.550622e+01

----------------------------Distribution of species----------------------------

                                               Log       Log       Log    mole V
   Species          Molality    Activity  Molality  Activity     Gamma   cm3/mol

   OH-             2.078e-06   2.073e-06    -5.682    -5.683    -0.001    -23.33
   H+              2.078e-06   2.072e-06    -5.682    -5.684    -0.001      0.00
   H2O             5.551e+01   1.000e+00     1.744    -0.000     0.000     20.41
H(0)          8.286e-25
   H2              4.143e-25   4.143e-25   -24.383   -24.383     0.000     28.55
O(0)          1.401e-10
   O2              7.003e-11   7.003e-11   -10.155   -10.155     0.000     37.93

------------------------------Saturation indices-------------------------------

	Phase               SI   log IAP   log K(457 K,  11 atm)

	H2(g)           -21.52    -24.38   -2.87  H2
	H2O(g)            1.01     -0.00   -1.01  H2O
	O2(g)            -7.22    -10.15   -2.94  O2


Reaction step 18.

Using solution 1.	
Using temperature 1.	

----------------------------------User print-----------------------------------


-----------------------------Solution composition------------------------------

	Elements           Molality       Moles

	Pure water     

----------------------------Description of solution----------------------------

                                       pH  =   5.653      Charge balance
                                       pe  =   4.737      Adjusted to redox equilibrium
       Specific Conductance (uS/cm, 195 oC) = 8
                          Density (g/cm3)  =   0.86987
                        Activity of water  =   1.000
                           Ionic strength  =   2.229e-06
                       Mass of water (kg)  =   1.000e+00
                 Total alkalinity (eq/kg)  =   2.208e-10
                    Total carbon (mol/kg)  =   0.000e+00
                       Total CO2 (mol/kg)  =   0.000e+00
                      Temperature (deg C)  = 195.50
                           Pressure (atm)  = 13.98
                  Electrical balance (eq)  =  -2.208e-10
 Percent error, 100*(Cat-|An|)/(Cat+|An|)  =  -0.00
                               Iterations  =   7
                                  Total H  = 1.110124e+02
                                  Total O  = 5.550622e+01

----------------------------Distribution of species----------------------------

                                               Log       Log       Log    mole V
   Species          Molality    Activity  Molality  Activity     Gamma   cm3/mol

   OH-             2.229e-06   2.223e-06    -5.652    -5.653    -0.001    -28.16
   H+              2.229e-06   2.223e-06    -5.652    -5.653    -0.001      0.00
   H2O             5.551e+01   1.000e+00     1.744    -0.000     0.000     20.71
H(0)          7.885e-25
   H2              3.942e-25   3.942e-25   -24.404   -24.404     0.000     28.55
O(0)          5.340e-09
   O2              2.670e-09   2.670e-09    -8.573    -8.573     0.000     38.85

------------------------------Saturation indices-------------------------------

	Phase               SI   log IAP   log K(468 K,  14 atm)

	H2(g)           -21.58    -24.40   -2.82  H2
	H2O(g)            1.12     -0.00   -1.12  H2O
	O2(g)            -5.68     -8.57   -2.89  O2


Reaction step 19.

Using solution 1.	
Using temperature 1.	

----------------------------------User print-----------------------------------


-----------------------------Solution composition------------------------------

	Elements           Molality       Moles

	Pure water     

----------------------------Description of solution----------------------------

                                       pH  =   5.628      Charge balance
                                       pe  =   4.328      Adjusted to redox equilibrium
       Specific Conductance (uS/cm, 207 oC) = 9
                          Density (g/cm3)  =   0.85637
                        Activity of water  =   1.000
                           Ionic strength  =   2.360e-06
                       Mass of water (kg)  =   1.000e+00
                 Total alkalinity (eq/kg)  =   2.208e-10
                    Total carbon (mol/kg)  =   0.000e+00
                       Total CO2 (mol/kg)  =   0.000e+00
                      Temperature (deg C)  = 207.00
                           Pressure (atm)  = 17.76
                  Electrical balance (eq)  =  -2.208e-10
 Percent error, 100*(Cat-|An|)/(Cat+|An|)  =  -0.00
                               Iterations  =  11
                                  Total H  = 1.110124e+02
                                  Total O  = 5.550622e+01

----------------------------Distribution of species----------------------------

                                               Log       Log       Log    mole V
   Species          Molality    Activity  Molality  Activity     Gamma   cm3/mol

   OH-             2.360e-06   2.353e-06    -5.627    -5.628    -0.001    -34.08
   H+              2.360e-06   2.353e-06    -5.627    -5.628    -0.001      0.00
   H2O             5.551e+01   1.000e+00     1.744    -0.000     0.000     21.04
H(0)          5.554e-24
   H2              2.777e-24   2.777e-24   -23.556   -23.556     0.000     28.55
O(0)          3.132e-09
   O2              1.566e-09   1.566e-09    -8.805    -8.805     0.000     39.95

------------------------------Saturation indices-------------------------------

	Phase               SI   log IAP   log K(480 K,  18 atm)

	H2(g)           -20.77    -23.56   -2.78  H2
	H2O(g)            1.22     -0.00   -1.22  H2O
	O2(g)            -5.96     -8.81   -2.85  O2


Reaction step 20.

Using solution 1.	
Using temperature 1.	

----------------------------------User print-----------------------------------


-----------------------------Solution composition------------------------------

	Elements           Molality       Moles

	Pure water     

----------------------------Description of solution----------------------------

                                       pH  =   5.609      Charge balance
                                       pe  =   4.021      Adjusted to redox equilibrium
       Specific Conductance (uS/cm, 218 oC) = 10
                          Density (g/cm3)  =   0.84214
                        Activity of water  =   1.000
                           Ionic strength  =   2.467e-06
                       Mass of water (kg)  =   1.000e+00
                 Total alkalinity (eq/kg)  =   2.208e-10
                    Total carbon (mol/kg)  =   0.000e+00
                       Total CO2 (mol/kg)  =   0.000e+00
                      Temperature (deg C)  = 218.50
                           Pressure (atm)  = 22.29
                  Electrical balance (eq)  =  -2.208e-10
 Percent error, 100*(Cat-|An|)/(Cat+|An|)  =  -0.00
                               Iterations  =  14
                                  Total H  = 1.110124e+02
                                  Total O  = 5.550622e+01

----------------------------Distribution of species----------------------------

                                               Log       Log       Log    mole V
   Species          Molality    Activity  Molality  Activity     Gamma   cm3/mol

   OH-             2.467e-06   2.460e-06    -5.608    -5.609    -0.001    -41.42
   H+              2.467e-06   2.460e-06    -5.608    -5.609    -0.001      0.00
   H2O             5.551e+01   1.000e+00     1.744    -0.000     0.000     21.39
H(0)          2.377e-23
   H2              1.189e-23   1.189e-23   -22.925   -22.925     0.000     28.54
O(0)          4.245e-09
   O2              2.122e-09   2.122e-09    -8.673    -8.673     0.000     41.29

------------------------------Saturation indices-------------------------------

	Phase               SI   log IAP   log K(491 K,  22 atm)

	H2(g)           -20.19    -22.92   -2.74  H2
	H2O(g)            1.31     -0.00   -1.31  H2O
	O2(g)            -5.87     -8.67   -2.80  O2


Reaction step 21.

Using solution 1.	
Using temperature 1.	

----------------------------------User print-----------------------------------


-----------------------------Solution composition------------------------------

	Elements           Molality       Moles

	Pure water     

----------------------------Description of solution----------------------------

                                       pH  =   5.595      Charge balance
                                       pe  =   3.710      Adjusted to redox equilibrium
       Specific Conductance (uS/cm, 230 oC) = 11
                          Density (g/cm3)  =   0.82713
                        Activity of water  =   1.000
                           Ionic strength  =   2.549e-06
                       Mass of water (kg)  =   1.000e+00
                 Total alkalinity (eq/kg)  =   2.208e-10
                    Total carbon (mol/kg)  =   0.000e+00
                       Total CO2 (mol/kg)  =   0.000e+00
                      Temperature (deg C)  = 230.00
                           Pressure (atm)  = 27.65
                  Electrical balance (eq)  =  -2.208e-10
 Percent error, 100*(Cat-|An|)/(Cat+|An|)  =  -0.00
                               Iterations  =  17
                                  Total H  = 1.110124e+02
                                  Total O  = 5.550622e+01

----------------------------Distribution of species----------------------------

                                               Log       Log       Log    mole V
   Species          Molality    Activity  Molality  Activity     Gamma   cm3/mol

   OH-             2.550e-06   2.541e-06    -5.594    -5.595    -0.001    -50.60
   H+              2.549e-06   2.541e-06    -5.594    -5.595    -0.001      0.00
   H2O             5.551e+01   1.000e+00     1.744    -0.000     0.000     21.78
H(0)          1.019e-22
   H2              5.095e-23   5.095e-23   -22.293   -22.293     0.000     28.54
O(0)          4.946e-09
   O2              2.473e-09   2.473e-09    -8.607    -8.607     0.000     42.94

------------------------------Saturation indices-------------------------------

	Phase               SI   log IAP   log K(503 K,  28 atm)

	H2(g)           -19.60    -22.29   -2.69  H2
	H2O(g)            1.39     -0.00   -1.39  H2O
	O2(g)            -5.86     -8.61   -2.75  O2


------------------
End of simulation.
------------------

------------------------------------
Reading input data for simulation 2.
------------------------------------

	PRINT
	 user_print false
	SOLUTION 1
	 Na 0.6
	 Cl 0.2 charge
	USE reaction_temperature 1
	USER_GRAPH 1 
	 -chart_title  "Alkali - Chlorides"
	-plot_csv_file mV1_rho.dat
	-axis_scale x_axis 270 510
	-axis_scale y_axis -10 30
	-axis_titles "Temperature / K" "molar Volume / cm3/mol"
	 -connect false
	-headings Vm
	 20 mV = (1e3 + tot("Na") * (22.989 + 1 * 35.453)) / (tot("Na") * rho) - 1e3 / (tot("Na") * get(step_no))
	 30 plot_xy tk, mV, color = Red, symbol = None, line_width = 2
	END
-------------------------------------------
Beginning of initial solution calculations.
-------------------------------------------

Initial solution 1.	

-----------------------------Solution composition------------------------------

	Elements           Molality       Moles

	Cl                6.000e-04   6.000e-04  Charge balance
	Na                6.000e-04   6.000e-04

----------------------------Description of solution----------------------------

                                       pH  =   7.000    
                                       pe  =   4.000    
       Specific Conductance (uS/cm, 25 oC) = 74
                          Density (g/cm3)  =   0.99705
                        Activity of water  =   1.000
                           Ionic strength  =   6.001e-04
                       Mass of water (kg)  =   1.000e+00
                 Total alkalinity (eq/kg)  =   3.435e-10
                    Total carbon (mol/kg)  =   0.000e+00
                       Total CO2 (mol/kg)  =   0.000e+00
                      Temperature (deg C)  =  25.00
                  Electrical balance (eq)  =  -1.380e-13
 Percent error, 100*(Cat-|An|)/(Cat+|An|)  =  -0.00
                               Iterations  =   7
                                  Total H  = 1.110124e+02
                                  Total O  = 5.550622e+01

----------------------------Distribution of species----------------------------

                                               Log       Log       Log    mole V
   Species          Molality    Activity  Molality  Activity     Gamma   cm3/mol

   OH-             1.031e-07   1.002e-07    -6.987    -6.999    -0.012     -4.09
   H+              1.027e-07   1.000e-07    -6.988    -7.000    -0.012      0.00
   H2O             5.551e+01   1.000e+00     1.744    -0.000     0.000     18.07
Cl            6.000e-04
   Cl-             6.000e-04   5.835e-04    -3.222    -3.234    -0.012     69.36
H(0)          1.416e-25
   H2              7.078e-26   7.079e-26   -25.150   -25.150     0.000     28.61
Na            6.000e-04
   Na+             6.000e-04   5.836e-04    -3.222    -3.234    -0.012     -8.97
   NaOH            5.848e-21   5.848e-21   -20.233   -20.233     0.000     (0)  
O(0)          0.000e+00
   O2              0.000e+00   0.000e+00   -42.080   -42.080     0.000     30.40

------------------------------Saturation indices-------------------------------

	Phase               SI   log IAP   log K(298 K,   1 atm)

	H2(g)           -22.05    -25.15   -3.10  H2
	H2O(g)           -1.50     -0.00    1.50  H2O
	Halite           -8.05     -6.47    1.58  NaCl
	O2(g)           -39.19    -42.08   -2.89  O2


-----------------------------------------
Beginning of batch-reaction calculations.
-----------------------------------------

Reaction step 1.

Using solution 1.	
Using temperature 1.	

-----------------------------Solution composition------------------------------

	Elements           Molality       Moles

	Cl                6.000e-04   6.000e-04
	Na                6.000e-04   6.000e-04

----------------------------Description of solution----------------------------

                                       pH  =   7.482      Charge balance
                                       pe  =  -1.746      Adjusted to redox equilibrium
       Specific Conductance (uS/cm, 0 oC) = 37
                          Density (g/cm3)  =   0.99984
                        Activity of water  =   1.000
                           Ionic strength  =   6.000e-04
                       Mass of water (kg)  =   1.000e+00
                 Total alkalinity (eq/kg)  =   3.435e-10
                    Total carbon (mol/kg)  =   0.000e+00
                       Total CO2 (mol/kg)  =   0.000e+00
                      Temperature (deg C)  =   0.00
                  Electrical balance (eq)  =  -1.380e-13
 Percent error, 100*(Cat-|An|)/(Cat+|An|)  =  -0.00
                               Iterations  =  10
                                  Total H  = 1.110124e+02
                                  Total O  = 5.550622e+01

----------------------------Distribution of species----------------------------

                                               Log       Log       Log    mole V
   Species          Molality    Activity  Molality  Activity     Gamma   cm3/mol

   OH-             3.418e-08   3.327e-08    -7.466    -7.478    -0.012     -6.61
   H+              3.384e-08   3.297e-08    -7.471    -7.482    -0.011      0.00
   H2O             5.551e+01   1.000e+00     1.744    -0.000     0.000     18.02
Cl            6.000e-04
   Cl-             6.000e-04   5.841e-04    -3.222    -3.234    -0.012     69.94
H(0)          6.271e-15
   H2              3.136e-15   3.136e-15   -14.504   -14.504     0.000     28.65
Na            6.000e-04
   Na+             6.000e-04   5.842e-04    -3.222    -3.233    -0.012     -8.96
   NaOH            1.943e-21   1.944e-21   -20.711   -20.711     0.000     (0)  
O(0)          0.000e+00
   O2              0.000e+00   0.000e+00   -72.179   -72.179     0.000     27.49

------------------------------Saturation indices-------------------------------

	Phase               SI   log IAP   log K(273 K,   1 atm)

	H2(g)           -11.49    -14.50   -3.01  H2
	H2O(g)           -2.21     -0.00    2.21  H2O
	Halite           -7.99     -6.47    1.52  NaCl
	O2(g)           -69.52    -72.18   -2.66  O2


Reaction step 2.

Using solution 1.	
Using temperature 1.	

-----------------------------Solution composition------------------------------

	Elements           Molality       Moles

	Cl                6.000e-04   6.000e-04
	Na                6.000e-04   6.000e-04

----------------------------Description of solution----------------------------

                                       pH  =   7.244      Charge balance
                                       pe  =  -1.536      Adjusted to redox equilibrium
       Specific Conductance (uS/cm, 11 oC) = 53
                          Density (g/cm3)  =   0.99955
                        Activity of water  =   1.000
                           Ionic strength  =   6.001e-04
                       Mass of water (kg)  =   1.000e+00
                 Total alkalinity (eq/kg)  =   3.435e-10
                    Total carbon (mol/kg)  =   0.000e+00
                       Total CO2 (mol/kg)  =   0.000e+00
                      Temperature (deg C)  =  11.50
                  Electrical balance (eq)  =  -1.380e-13
 Percent error, 100*(Cat-|An|)/(Cat+|An|)  =  -0.00
                               Iterations  =  10
                                  Total H  = 1.110124e+02
                                  Total O  = 5.550622e+01

----------------------------Distribution of species----------------------------

                                               Log       Log       Log    mole V
   Species          Molality    Activity  Molality  Activity     Gamma   cm3/mol

   OH-             5.893e-08   5.733e-08    -7.230    -7.242    -0.012     -5.04
   H+              5.858e-08   5.706e-08    -7.232    -7.244    -0.011      0.00
   H2O             5.551e+01   1.000e+00     1.744    -0.000     0.000     18.02
Cl            6.000e-04
   Cl-             6.000e-04   5.838e-04    -3.222    -3.234    -0.012     69.61
H(0)          6.273e-15
   H2              3.136e-15   3.137e-15   -14.504   -14.504     0.000     28.62
Na            6.000e-04
   Na+             6.000e-04   5.839e-04    -3.222    -3.234    -0.012     -8.96
   NaOH            3.347e-21   3.348e-21   -20.475   -20.475     0.000     (0)  
O(0)          0.000e+00
   O2              0.000e+00   0.000e+00   -67.936   -67.936     0.000     29.12

------------------------------Saturation indices-------------------------------

	Phase               SI   log IAP   log K(284 K,   1 atm)

	H2(g)           -11.44    -14.50   -3.06  H2
	H2O(g)           -1.87     -0.00    1.87  H2O
	Halite           -8.02     -6.47    1.55  NaCl
	O2(g)           -65.16    -67.94   -2.78  O2


Reaction step 3.

Using solution 1.	
Using temperature 1.	

-----------------------------Solution composition------------------------------

	Elements           Molality       Moles

	Cl                6.000e-04   6.000e-04
	Na                6.000e-04   6.000e-04

----------------------------Description of solution----------------------------

                                       pH  =   7.034      Charge balance
                                       pe  =  -1.353      Adjusted to redox equilibrium
       Specific Conductance (uS/cm, 23 oC) = 71
                          Density (g/cm3)  =   0.99754
                        Activity of water  =   1.000
                           Ionic strength  =   6.001e-04
                       Mass of water (kg)  =   1.000e+00
                 Total alkalinity (eq/kg)  =   3.435e-10
                    Total carbon (mol/kg)  =   0.000e+00
                       Total CO2 (mol/kg)  =   0.000e+00
                      Temperature (deg C)  =  23.00
                  Electrical balance (eq)  =  -1.380e-13
 Percent error, 100*(Cat-|An|)/(Cat+|An|)  =  -0.00
                               Iterations  =  10
                                  Total H  = 1.110124e+02
                                  Total O  = 5.550622e+01

----------------------------Distribution of species----------------------------

                                               Log       Log       Log    mole V
   Species          Molality    Activity  Molality  Activity     Gamma   cm3/mol

   OH-             9.534e-08   9.272e-08    -7.021    -7.033    -0.012     -4.19
   H+              9.500e-08   9.249e-08    -7.022    -7.034    -0.012      0.00
   H2O             5.551e+01   1.000e+00     1.744    -0.000     0.000     18.06
Cl            6.000e-04
   Cl-             6.000e-04   5.835e-04    -3.222    -3.234    -0.012     69.39
H(0)          6.285e-15
   H2              3.142e-15   3.143e-15   -14.503   -14.503     0.000     28.61
Na            6.000e-04
   Na+             6.000e-04   5.836e-04    -3.222    -3.234    -0.012     -8.97
   NaOH            5.411e-21   5.411e-21   -20.267   -20.267     0.000     (0)  
O(0)          0.000e+00
   O2              0.000e+00   0.000e+00   -64.025   -64.024     0.000     30.24

------------------------------Saturation indices-------------------------------

	Phase               SI   log IAP   log K(296 K,   1 atm)

	H2(g)           -11.41    -14.50   -3.10  H2
	H2O(g)           -1.55     -0.00    1.55  H2O
	Halite           -8.05     -6.47    1.58  NaCl
	O2(g)           -61.15    -64.02   -2.88  O2


Reaction step 4.

Using solution 1.	
Using temperature 1.	

-----------------------------Solution composition------------------------------

	Elements           Molality       Moles

	Cl                6.000e-04   6.000e-04
	Na                6.000e-04   6.000e-04

----------------------------Description of solution----------------------------

                                       pH  =   6.848      Charge balance
                                       pe  =  -1.194      Adjusted to redox equilibrium
       Specific Conductance (uS/cm, 34 oC) = 91
                          Density (g/cm3)  =   0.99421
                        Activity of water  =   1.000
                           Ionic strength  =   6.001e-04
                       Mass of water (kg)  =   1.000e+00
                 Total alkalinity (eq/kg)  =   3.435e-10
                    Total carbon (mol/kg)  =   0.000e+00
                       Total CO2 (mol/kg)  =   0.000e+00
                      Temperature (deg C)  =  34.50
                  Electrical balance (eq)  =  -1.380e-13
 Percent error, 100*(Cat-|An|)/(Cat+|An|)  =  -0.00
                               Iterations  =  10
                                  Total H  = 1.110124e+02
                                  Total O  = 5.550622e+01

----------------------------Distribution of species----------------------------

                                               Log       Log       Log    mole V
   Species          Molality    Activity  Molality  Activity     Gamma   cm3/mol

   OH-             1.460e-07   1.419e-07    -6.836    -6.848    -0.012     -3.77
   H+              1.457e-07   1.418e-07    -6.837    -6.848    -0.012      0.00
   H2O             5.551e+01   1.000e+00     1.744    -0.000     0.000     18.12
Cl            6.000e-04
   Cl-             6.000e-04   5.832e-04    -3.222    -3.234    -0.012     69.24
H(0)          6.346e-15
   H2              3.173e-15   3.173e-15   -14.499   -14.498     0.000     28.60
Na            6.000e-04
   Na+             6.000e-04   5.833e-04    -3.222    -3.234    -0.012     -8.97
   NaOH            8.278e-21   8.279e-21   -20.082   -20.082     0.000     (0)  
O(0)          0.000e+00
   O2              0.000e+00   0.000e+00   -60.412   -60.412     0.000     31.07

------------------------------Saturation indices-------------------------------

	Phase               SI   log IAP   log K(307 K,   1 atm)

	H2(g)           -11.38    -14.50   -3.12  H2
	H2O(g)           -1.27     -0.00    1.27  H2O
	Halite           -8.07     -6.47    1.60  NaCl
	O2(g)           -57.46    -60.41   -2.95  O2


Reaction step 5.

Using solution 1.	
Using temperature 1.	

-----------------------------Solution composition------------------------------

	Elements           Molality       Moles

	Cl                6.000e-04   6.000e-04
	Na                6.000e-04   6.000e-04

----------------------------Description of solution----------------------------

                                       pH  =   6.684      Charge balance
                                       pe  =  -1.059      Adjusted to redox equilibrium
       Specific Conductance (uS/cm, 46 oC) = 113
                          Density (g/cm3)  =   0.98980
                        Activity of water  =   1.000
                           Ionic strength  =   6.002e-04
                       Mass of water (kg)  =   1.000e+00
                 Total alkalinity (eq/kg)  =   3.435e-10
                    Total carbon (mol/kg)  =   0.000e+00
                       Total CO2 (mol/kg)  =   0.000e+00
                      Temperature (deg C)  =  46.00
                  Electrical balance (eq)  =  -1.380e-13
 Percent error, 100*(Cat-|An|)/(Cat+|An|)  =  -0.00
                               Iterations  =  10
                                  Total H  = 1.110124e+02
                                  Total O  = 5.550622e+01

----------------------------Distribution of species----------------------------

                                               Log       Log       Log    mole V
   Species          Molality    Activity  Molality  Activity     Gamma   cm3/mol

   OH-             2.133e-07   2.072e-07    -6.671    -6.684    -0.013     -3.67
   H+              2.130e-07   2.071e-07    -6.672    -6.684    -0.012      0.00
   H2O             5.551e+01   1.000e+00     1.744    -0.000     0.000     18.20
Cl            6.000e-04
   Cl-             6.000e-04   5.828e-04    -3.222    -3.234    -0.013     69.13
H(0)          6.564e-15
   H2              3.282e-15   3.283e-15   -14.484   -14.484     0.000     28.59
Na            6.000e-04
   Na+             6.000e-04   5.829e-04    -3.222    -3.234    -0.013     -8.97
   NaOH            1.208e-20   1.208e-20   -19.918   -19.918     0.000     (0)  
O(0)          0.000e+00
   O2              0.000e+00   0.000e+00   -57.081   -57.081     0.000     31.72

------------------------------Saturation indices-------------------------------

	Phase               SI   log IAP   log K(319 K,   1 atm)

	H2(g)           -11.35    -14.48   -3.13  H2
	H2O(g)           -1.00     -0.00    1.00  H2O
	Halite           -8.10     -6.47    1.63  NaCl
	O2(g)           -54.07    -57.08   -3.01  O2


Reaction step 6.

Using solution 1.	
Using temperature 1.	

-----------------------------Solution composition------------------------------

	Elements           Molality       Moles

	Cl                6.000e-04   6.000e-04
	Na                6.000e-04   6.000e-04

----------------------------Description of solution----------------------------

                                       pH  =   6.537      Charge balance
                                       pe  =  -0.952      Adjusted to redox equilibrium
       Specific Conductance (uS/cm, 57 oC) = 137
                          Density (g/cm3)  =   0.98448
                        Activity of water  =   1.000
                           Ionic strength  =   6.003e-04
                       Mass of water (kg)  =   1.000e+00
                 Total alkalinity (eq/kg)  =   3.435e-10
                    Total carbon (mol/kg)  =   0.000e+00
                       Total CO2 (mol/kg)  =   0.000e+00
                      Temperature (deg C)  =  57.50
                  Electrical balance (eq)  =  -1.380e-13
 Percent error, 100*(Cat-|An|)/(Cat+|An|)  =  -0.00
                               Iterations  =  10
                                  Total H  = 1.110124e+02
                                  Total O  = 5.550622e+01

----------------------------Distribution of species----------------------------

                                               Log       Log       Log    mole V
   Species          Molality    Activity  Molality  Activity     Gamma   cm3/mol

   OH-             2.990e-07   2.902e-07    -6.524    -6.537    -0.013     -3.81
   H+              2.987e-07   2.903e-07    -6.525    -6.537    -0.012      0.00
   H2O             5.551e+01   1.000e+00     1.744    -0.000     0.000     18.30
Cl            6.000e-04
   Cl-             6.000e-04   5.824e-04    -3.222    -3.235    -0.013     69.05
H(0)          7.140e-15
   H2              3.570e-15   3.570e-15   -14.447   -14.447     0.000     28.58
Na            6.000e-04
   Na+             6.000e-04   5.825e-04    -3.222    -3.235    -0.013     -8.97
   NaOH            1.690e-20   1.691e-20   -19.772   -19.772     0.000     (0)  
O(0)          0.000e+00
   O2              0.000e+00   0.000e+00   -54.028   -54.028     0.000     32.27

------------------------------Saturation indices-------------------------------

	Phase               SI   log IAP   log K(330 K,   1 atm)

	H2(g)           -11.31    -14.45   -3.14  H2
	H2O(g)           -0.76     -0.00    0.76  H2O
	Halite           -8.12     -6.47    1.65  NaCl
	O2(g)           -50.97    -54.03   -3.06  O2


Reaction step 7.

Using solution 1.	
Using temperature 1.	

-----------------------------Solution composition------------------------------

	Elements           Molality       Moles

	Cl                6.000e-04   6.000e-04
	Na                6.000e-04   6.000e-04

----------------------------Description of solution----------------------------

                                       pH  =   6.407      Charge balance
                                       pe  =  -0.875      Adjusted to redox equilibrium
       Specific Conductance (uS/cm, 69 oC) = 162
                          Density (g/cm3)  =   0.97835
                        Activity of water  =   1.000
                           Ionic strength  =   6.004e-04
                       Mass of water (kg)  =   1.000e+00
                 Total alkalinity (eq/kg)  =   3.435e-10
                    Total carbon (mol/kg)  =   0.000e+00
                       Total CO2 (mol/kg)  =   0.000e+00
                      Temperature (deg C)  =  69.00
                  Electrical balance (eq)  =  -1.379e-13
 Percent error, 100*(Cat-|An|)/(Cat+|An|)  =  -0.00
                               Iterations  =  10
                                  Total H  = 1.110124e+02
                                  Total O  = 5.550622e+01

----------------------------Distribution of species----------------------------

                                               Log       Log       Log    mole V
   Species          Molality    Activity  Molality  Activity     Gamma   cm3/mol

   OH-             4.042e-07   3.920e-07    -6.393    -6.407    -0.013     -4.17
   H+              4.038e-07   3.922e-07    -6.394    -6.407    -0.013      0.00
   H2O             5.551e+01   1.000e+00     1.744    -0.000     0.000     18.41
Cl            6.000e-04
   Cl-             6.000e-04   5.820e-04    -3.222    -3.235    -0.013     68.99
H(0)          8.373e-15
   H2              4.187e-15   4.187e-15   -14.378   -14.378     0.000     28.58
Na            6.000e-04
   Na+             6.000e-04   5.821e-04    -3.222    -3.235    -0.013     -8.97
   NaOH            2.282e-20   2.282e-20   -19.642   -19.642     0.000     (0)  
O(0)          0.000e+00
   O2              0.000e+00   0.000e+00   -51.250   -51.250     0.000     32.75

------------------------------Saturation indices-------------------------------

	Phase               SI   log IAP   log K(342 K,   1 atm)

	H2(g)           -11.24    -14.38   -3.14  H2
	H2O(g)           -0.53     -0.00    0.53  H2O
	Halite           -8.14     -6.47    1.67  NaCl
	O2(g)           -48.16    -51.25   -3.09  O2


Reaction step 8.

Using solution 1.	
Using temperature 1.	

-----------------------------Solution composition------------------------------

	Elements           Molality       Moles

	Cl                6.000e-04   6.000e-04
	Na                6.000e-04   6.000e-04

----------------------------Description of solution----------------------------

                                       pH  =   6.290      Charge balance
                                       pe  =  -0.771      Adjusted to redox equilibrium
       Specific Conductance (uS/cm, 80 oC) = 188
                          Density (g/cm3)  =   0.97149
                        Activity of water  =   1.000
                           Ionic strength  =   6.005e-04
                       Mass of water (kg)  =   1.000e+00
                 Total alkalinity (eq/kg)  =   3.435e-10
                    Total carbon (mol/kg)  =   0.000e+00
                       Total CO2 (mol/kg)  =   0.000e+00
                      Temperature (deg C)  =  80.50
                  Electrical balance (eq)  =  -1.368e-13
 Percent error, 100*(Cat-|An|)/(Cat+|An|)  =  -0.00
                               Iterations  =  10
                                  Total H  = 1.110124e+02
                                  Total O  = 5.550622e+01

----------------------------Distribution of species----------------------------

                                               Log       Log       Log    mole V
   Species          Molality    Activity  Molality  Activity     Gamma   cm3/mol

   OH-             5.291e-07   5.127e-07    -6.276    -6.290    -0.014     -4.74
   H+              5.287e-07   5.131e-07    -6.277    -6.290    -0.013      0.00
   H2O             5.551e+01   1.000e+00     1.744    -0.000     0.000     18.54
Cl            6.000e-04
   Cl-             6.000e-04   5.815e-04    -3.222    -3.235    -0.014     68.94
H(0)          8.146e-15
   H2              4.073e-15   4.074e-15   -14.390   -14.390     0.000     28.57
Na            6.000e-04
   Na+             6.000e-04   5.816e-04    -3.222    -3.235    -0.014     -8.98
   NaOH            2.982e-20   2.982e-20   -19.526   -19.525     0.000     (0)  
O(0)          0.000e+00
   O2              0.000e+00   0.000e+00   -48.500   -48.500     0.000     33.19

------------------------------Saturation indices-------------------------------

	Phase               SI   log IAP   log K(353 K,   1 atm)

	H2(g)           -11.26    -14.39   -3.13  H2
	H2O(g)           -0.33     -0.00    0.33  H2O
	Halite           -8.16     -6.47    1.69  NaCl
	O2(g)           -45.39    -48.50   -3.11  O2


Reaction step 9.

Using solution 1.	
Using temperature 1.	

-----------------------------Solution composition------------------------------

	Elements           Molality       Moles

	Cl                6.000e-04   6.000e-04
	Na                6.000e-04   6.000e-04

----------------------------Description of solution----------------------------

                                       pH  =   6.186      Charge balance
                                       pe  =  -0.672      Adjusted to redox equilibrium
       Specific Conductance (uS/cm, 92 oC) = 215
                          Density (g/cm3)  =   0.96396
                        Activity of water  =   1.000
                           Ionic strength  =   6.007e-04
                       Mass of water (kg)  =   1.000e+00
                 Total alkalinity (eq/kg)  =   3.434e-10
                    Total carbon (mol/kg)  =   0.000e+00
                       Total CO2 (mol/kg)  =   0.000e+00
                      Temperature (deg C)  =  92.00
                  Electrical balance (eq)  =  -1.003e-13
 Percent error, 100*(Cat-|An|)/(Cat+|An|)  =  -0.00
                               Iterations  =  10
                                  Total H  = 1.110124e+02
                                  Total O  = 5.550622e+01

----------------------------Distribution of species----------------------------

                                               Log       Log       Log    mole V
   Species          Molality    Activity  Molality  Activity     Gamma   cm3/mol

   OH-             6.731e-07   6.517e-07    -6.172    -6.186    -0.014     -5.51
   H+              6.727e-07   6.523e-07    -6.172    -6.186    -0.013      0.00
   H2O             5.551e+01   1.000e+00     1.744    -0.000     0.000     18.69
Cl            6.000e-04
   Cl-             6.000e-04   5.810e-04    -3.222    -3.236    -0.014     68.91
H(0)          7.708e-15
   H2              3.854e-15   3.854e-15   -14.414   -14.414     0.000     28.57
Na            6.000e-04
   Na+             6.000e-04   5.811e-04    -3.222    -3.236    -0.014     -8.98
   NaOH            3.787e-20   3.787e-20   -19.422   -19.422     0.000     (0)  
O(0)          0.000e+00
   O2              0.000e+00   0.000e+00   -45.897   -45.897     0.000     33.61

------------------------------Saturation indices-------------------------------

	Phase               SI   log IAP   log K(365 K,   1 atm)

	H2(g)           -11.30    -14.41   -3.11  H2
	H2O(g)           -0.13     -0.00    0.13  H2O
	Halite           -8.18     -6.47    1.71  NaCl
	O2(g)           -42.78    -45.90   -3.11  O2


Reaction step 10.

Using solution 1.	
Using temperature 1.	

-----------------------------Solution composition------------------------------

	Elements           Molality       Moles

	Cl                6.000e-04   6.000e-04
	Na                6.000e-04   6.000e-04

----------------------------Description of solution----------------------------

                                       pH  =   6.093      Charge balance
                                       pe  =  -0.553      Adjusted to redox equilibrium
       Specific Conductance (uS/cm, 103 oC) = 244
                          Density (g/cm3)  =   0.95581
                        Activity of water  =   1.000
                           Ionic strength  =   6.008e-04
                       Mass of water (kg)  =   1.000e+00
                 Total alkalinity (eq/kg)  =   3.435e-10
                    Total carbon (mol/kg)  =   0.000e+00
                       Total CO2 (mol/kg)  =   0.000e+00
                      Temperature (deg C)  = 103.50
                           Pressure (atm)  =  1.13
                  Electrical balance (eq)  =  -1.379e-13
 Percent error, 100*(Cat-|An|)/(Cat+|An|)  =  -0.00
                               Iterations  =  11
[...]
                  Electrical balance (eq)  =  -2.731e-12
 Percent error, 100*(Cat-|An|)/(Cat+|An|)  =  -0.00
                               Iterations  =   6
                                  Total H  = 1.110124e+02
                                  Total O  = 5.550622e+01

----------------------------Distribution of species----------------------------

                                               Log       Log       Log    mole V
   Species          Molality    Activity  Molality  Activity     Gamma   cm3/mol

   OH-             1.590e-06   1.536e-06    -5.799    -5.814    -0.015    -13.34
   H+              1.590e-06   1.538e-06    -5.799    -5.813    -0.014      0.00
   H2O             5.551e+01   1.000e+00     1.744    -0.000     0.000     19.64
Cl            5.000e-04
   Cl-             5.000e-04   4.830e-04    -3.301    -3.316    -0.015      1.59
H(0)          4.924e-25
   H2              2.462e-25   2.462e-25   -24.609   -24.609     0.000     28.56
K             5.000e-04
   K+              5.000e-04   4.830e-04    -3.301    -3.316    -0.015      4.24
   KOH             1.089e-12   1.089e-12   -11.963   -11.963     0.000     (0)  
O(0)          3.016e-15
   O2              1.508e-15   1.508e-15   -14.822   -14.822     0.000     35.89

------------------------------Saturation indices-------------------------------

	Phase               SI   log IAP   log K(422 K,   5 atm)

	H2(g)           -21.63    -24.61   -2.98  H2
	H2O(g)            0.65     -0.00   -0.65  H2O
	O2(g)           -11.78    -14.82   -3.04  O2


Reaction step 15.

Using solution 1.	
Using temperature 1.	

-----------------------------Solution composition------------------------------

	Elements           Molality       Moles

	Cl                5.000e-04   5.000e-04
	K                 5.000e-04   5.000e-04

----------------------------Description of solution----------------------------

                                       pH  =   5.763      Charge balance
                                       pe  =   4.737      Adjusted to redox equilibrium
       Specific Conductance (uS/cm, 161 oC) = 5
                          Density (g/cm3)  =   0.90650
                        Activity of water  =   1.000
                           Ionic strength  =   5.018e-04
                       Mass of water (kg)  =   1.000e+00
                 Total alkalinity (eq/kg)  =   3.410e-10
                    Total carbon (mol/kg)  =   0.000e+00
                       Total CO2 (mol/kg)  =   0.000e+00
                      Temperature (deg C)  = 161.00
                           Pressure (atm)  =  6.26
                  Electrical balance (eq)  =  -2.693e-12
 Percent error, 100*(Cat-|An|)/(Cat+|An|)  =  -0.00
                               Iterations  =   6
                                  Total H  = 1.110124e+02
                                  Total O  = 5.550622e+01

----------------------------Distribution of species----------------------------

                                               Log       Log       Log    mole V
   Species          Molality    Activity  Molality  Activity     Gamma   cm3/mol

   OH-             1.786e-06   1.723e-06    -5.748    -5.764    -0.016    -16.02
   H+              1.786e-06   1.726e-06    -5.748    -5.763    -0.015      0.00
   H2O             5.551e+01   1.000e+00     1.744    -0.000     0.000     19.87
Cl            5.000e-04
   Cl-             5.000e-04   4.824e-04    -3.301    -3.317    -0.016     -1.88
H(0)          5.570e-25
   H2              2.785e-25   2.785e-25   -24.555   -24.555     0.000     28.56
K             5.000e-04
   K+              5.000e-04   4.824e-04    -3.301    -3.317    -0.016      2.65
   KOH             9.692e-13   9.693e-13   -12.014   -12.014     0.000     (0)  
O(0)          1.477e-13
   O2              7.384e-14   7.385e-14   -13.132   -13.132     0.000     36.48

------------------------------Saturation indices-------------------------------

	Phase               SI   log IAP   log K(434 K,   6 atm)

	H2(g)           -21.61    -24.56   -2.94  H2
	H2O(g)            0.78     -0.00   -0.78  H2O
	O2(g)           -10.12    -13.13   -3.01  O2


Reaction step 16.

Using solution 1.	
Using temperature 1.	

-----------------------------Solution composition------------------------------

	Elements           Molality       Moles

	Cl                5.000e-04   5.000e-04
	K                 5.000e-04   5.000e-04

----------------------------Description of solution----------------------------

                                       pH  =   5.720      Charge balance
                                       pe  =   4.779      Adjusted to redox equilibrium
       Specific Conductance (uS/cm, 172 oC) = 6
                          Density (g/cm3)  =   0.89492
                        Activity of water  =   1.000
                           Ionic strength  =   5.020e-04
                       Mass of water (kg)  =   1.000e+00
                 Total alkalinity (eq/kg)  =   3.409e-10
                    Total carbon (mol/kg)  =   0.000e+00
                       Total CO2 (mol/kg)  =   0.000e+00
                      Temperature (deg C)  = 172.50
                           Pressure (atm)  =  8.31
                  Electrical balance (eq)  =  -2.583e-12
 Percent error, 100*(Cat-|An|)/(Cat+|An|)  =  -0.00
                               Iterations  =   6
                                  Total H  = 1.110124e+02
                                  Total O  = 5.550622e+01

----------------------------Distribution of species----------------------------

                                               Log       Log       Log    mole V
   Species          Molality    Activity  Molality  Activity     Gamma   cm3/mol

   OH-             1.975e-06   1.903e-06    -5.704    -5.720    -0.016    -19.27
   H+              1.975e-06   1.906e-06    -5.704    -5.720    -0.015      0.00
   H2O             5.551e+01   1.000e+00     1.744    -0.000     0.000     20.13
Cl            5.000e-04
   Cl-             5.000e-04   4.818e-04    -3.301    -3.317    -0.016     -5.68
H(0)          5.292e-25
   H2              2.646e-25   2.646e-25   -24.577   -24.577     0.000     28.55
K             5.000e-04
   K+              5.000e-04   4.818e-04    -3.301    -3.317    -0.016      0.87
   KOH             8.764e-13   8.765e-13   -12.057   -12.057     0.000     (0)  
O(0)          8.275e-12
   O2              4.138e-12   4.138e-12   -11.383   -11.383     0.000     37.15

------------------------------Saturation indices-------------------------------

	Phase               SI   log IAP   log K(445 K,   8 atm)

	H2(g)           -21.67    -24.58   -2.91  H2
	H2O(g)            0.90     -0.00   -0.90  H2O
	O2(g)            -8.41    -11.38   -2.98  O2


Reaction step 17.

Using solution 1.	
Using temperature 1.	

-----------------------------Solution composition------------------------------

	Elements           Molality       Moles

	Cl                5.000e-04   5.000e-04
	K                 5.000e-04   5.000e-04

----------------------------Description of solution----------------------------

                                       pH  =   5.683      Charge balance
                                       pe  =   4.816      Adjusted to redox equilibrium
       Specific Conductance (uS/cm, 184 oC) = 7
                          Density (g/cm3)  =   0.88273
                        Activity of water  =   1.000
                           Ionic strength  =   5.022e-04
                       Mass of water (kg)  =   1.000e+00
                 Total alkalinity (eq/kg)  =   3.406e-10
                    Total carbon (mol/kg)  =   0.000e+00
                       Total CO2 (mol/kg)  =   0.000e+00
                      Temperature (deg C)  = 184.00
                           Pressure (atm)  = 10.86
                  Electrical balance (eq)  =  -2.332e-12
 Percent error, 100*(Cat-|An|)/(Cat+|An|)  =  -0.00
                               Iterations  =   6
                                  Total H  = 1.110124e+02
                                  Total O  = 5.550622e+01

----------------------------Distribution of species----------------------------

                                               Log       Log       Log    mole V
   Species          Molality    Activity  Molality  Activity     Gamma   cm3/mol

   OH-             2.152e-06   2.071e-06    -5.667    -5.684    -0.017    -23.21
   H+              2.152e-06   2.074e-06    -5.667    -5.683    -0.016      0.00
   H2O             5.551e+01   1.000e+00     1.744    -0.000     0.000     20.41
Cl            5.000e-04
   Cl-             5.000e-04   4.811e-04    -3.301    -3.318    -0.017     -9.81
H(0)          5.025e-25
   H2              2.513e-25   2.513e-25   -24.600   -24.600     0.000     28.55
K             5.000e-04
   K+              5.000e-04   4.811e-04    -3.301    -3.318    -0.017     -1.10
   KOH             8.043e-13   8.044e-13   -12.095   -12.095     0.000     (0)  
O(0)          3.807e-10
   O2              1.903e-10   1.904e-10    -9.720    -9.720     0.000     37.93

------------------------------Saturation indices-------------------------------

	Phase               SI   log IAP   log K(457 K,  11 atm)

	H2(g)           -21.73    -24.60   -2.87  H2
	H2O(g)            1.01     -0.00   -1.01  H2O
	O2(g)            -6.78     -9.72   -2.94  O2


Reaction step 18.

Using solution 1.	
Using temperature 1.	

-----------------------------Solution composition------------------------------

	Elements           Molality       Moles

	Cl                5.000e-04   5.000e-04
	K                 5.000e-04   5.000e-04

----------------------------Description of solution----------------------------

                                       pH  =   5.653      Charge balance
                                       pe  =   4.738      Adjusted to redox equilibrium
       Specific Conductance (uS/cm, 195 oC) = 8
                          Density (g/cm3)  =   0.86991
                        Activity of water  =   1.000
                           Ionic strength  =   5.023e-04
                       Mass of water (kg)  =   1.000e+00
                 Total alkalinity (eq/kg)  =   3.410e-10
                    Total carbon (mol/kg)  =   0.000e+00
                       Total CO2 (mol/kg)  =   0.000e+00
                      Temperature (deg C)  = 195.50
                           Pressure (atm)  = 13.98
                  Electrical balance (eq)  =  -2.741e-12
 Percent error, 100*(Cat-|An|)/(Cat+|An|)  =  -0.00
                               Iterations  =   7
                                  Total H  = 1.110124e+02
                                  Total O  = 5.550622e+01

----------------------------Distribution of species----------------------------

                                               Log       Log       Log    mole V
   Species          Molality    Activity  Molality  Activity     Gamma   cm3/mol

   OH-             2.312e-06   2.221e-06    -5.636    -5.653    -0.017    -28.01
   H+              2.312e-06   2.225e-06    -5.636    -5.653    -0.017      0.00
   H2O             5.551e+01   1.000e+00     1.744    -0.000     0.000     20.71
Cl            5.000e-04
   Cl-             5.000e-04   4.804e-04    -3.301    -3.318    -0.017    -14.28
H(0)          7.884e-25
   H2              3.942e-25   3.942e-25   -24.404   -24.404     0.000     28.55
K             5.000e-04
   K+              5.000e-04   4.804e-04    -3.301    -3.318    -0.017     -3.26
   KOH             7.485e-13   7.486e-13   -12.126   -12.126     0.000     (0)  
O(0)          5.339e-09
   O2              2.670e-09   2.670e-09    -8.574    -8.574     0.000     38.85

------------------------------Saturation indices-------------------------------

	Phase               SI   log IAP   log K(468 K,  14 atm)

	H2(g)           -21.58    -24.40   -2.82  H2
	H2O(g)            1.12     -0.00   -1.12  H2O
	O2(g)            -5.68     -8.57   -2.89  O2


Reaction step 19.

Using solution 1.	
Using temperature 1.	

-----------------------------Solution composition------------------------------

	Elements           Molality       Moles

	Cl                5.000e-04   5.000e-04
	K                 5.000e-04   5.000e-04

----------------------------Description of solution----------------------------

                                       pH  =   5.628      Charge balance
                                       pe  =   4.328      Adjusted to redox equilibrium
       Specific Conductance (uS/cm, 207 oC) = 9
                          Density (g/cm3)  =   0.85641
                        Activity of water  =   1.000
                           Ionic strength  =   5.025e-04
                       Mass of water (kg)  =   1.000e+00
                 Total alkalinity (eq/kg)  =   3.410e-10
                    Total carbon (mol/kg)  =   0.000e+00
                       Total CO2 (mol/kg)  =   0.000e+00
                      Temperature (deg C)  = 207.00
                           Pressure (atm)  = 17.76
                  Electrical balance (eq)  =  -2.741e-12
 Percent error, 100*(Cat-|An|)/(Cat+|An|)  =  -0.00
                               Iterations  =  11
                                  Total H  = 1.110124e+02
                                  Total O  = 5.550622e+01

----------------------------Distribution of species----------------------------

                                               Log       Log       Log    mole V
   Species          Molality    Activity  Molality  Activity     Gamma   cm3/mol

   OH-             2.451e-06   2.351e-06    -5.611    -5.629    -0.018    -33.91
   H+              2.451e-06   2.355e-06    -5.611    -5.628    -0.017      0.00
   H2O             5.551e+01   1.000e+00     1.744    -0.000     0.000     21.04
Cl            5.000e-04
   Cl-             5.000e-04   4.796e-04    -3.301    -3.319    -0.018    -19.07
H(0)          5.554e-24
   H2              2.777e-24   2.777e-24   -23.556   -23.556     0.000     28.55
K             5.000e-04
   K+              5.000e-04   4.796e-04    -3.301    -3.319    -0.018     -5.60
   KOH             7.060e-13   7.061e-13   -12.151   -12.151     0.000     (0)  
O(0)          3.131e-09
   O2              1.566e-09   1.566e-09    -8.805    -8.805     0.000     39.95

------------------------------Saturation indices-------------------------------

	Phase               SI   log IAP   log K(480 K,  18 atm)

	H2(g)           -20.77    -23.56   -2.78  H2
	H2O(g)            1.22     -0.00   -1.22  H2O
	O2(g)            -5.96     -8.81   -2.85  O2


Reaction step 20.

Using solution 1.	
Using temperature 1.	

-----------------------------Solution composition------------------------------

	Elements           Molality       Moles

	Cl                5.000e-04   5.000e-04
	K                 5.000e-04   5.000e-04

----------------------------Description of solution----------------------------

                                       pH  =   5.609      Charge balance
                                       pe  =   4.022      Adjusted to redox equilibrium
       Specific Conductance (uS/cm, 218 oC) = 10
                          Density (g/cm3)  =   0.84219
                        Activity of water  =   1.000
                           Ionic strength  =   5.026e-04
                       Mass of water (kg)  =   1.000e+00
                 Total alkalinity (eq/kg)  =   3.410e-10
                    Total carbon (mol/kg)  =   0.000e+00
                       Total CO2 (mol/kg)  =   0.000e+00
                      Temperature (deg C)  = 218.50
                           Pressure (atm)  = 22.29
                  Electrical balance (eq)  =  -2.741e-12
 Percent error, 100*(Cat-|An|)/(Cat+|An|)  =  -0.00
                               Iterations  =  14
                                  Total H  = 1.110124e+02
                                  Total O  = 5.550622e+01

----------------------------Distribution of species----------------------------

                                               Log       Log       Log    mole V
   Species          Molality    Activity  Molality  Activity     Gamma   cm3/mol

   OH-             2.567e-06   2.457e-06    -5.591    -5.610    -0.019    -41.21
   H+              2.566e-06   2.462e-06    -5.591    -5.609    -0.018      0.00
   H2O             5.551e+01   1.000e+00     1.744    -0.000     0.000     21.39
Cl            5.000e-04
   Cl-             5.000e-04   4.787e-04    -3.301    -3.320    -0.019    -24.19
H(0)          2.377e-23
   H2              1.189e-23   1.189e-23   -22.925   -22.925     0.000     28.54
K             5.000e-04
   K+              5.000e-04   4.787e-04    -3.301    -3.320    -0.019     -8.14
   KOH             6.742e-13   6.743e-13   -12.171   -12.171     0.000     (0)  
O(0)          4.244e-09
   O2              2.122e-09   2.122e-09    -8.673    -8.673     0.000     41.29

------------------------------Saturation indices-------------------------------

	Phase               SI   log IAP   log K(491 K,  22 atm)

	H2(g)           -20.19    -22.92   -2.74  H2
	H2O(g)            1.31     -0.00   -1.31  H2O
	O2(g)            -5.87     -8.67   -2.80  O2


Reaction step 21.

Using solution 1.	
Using temperature 1.	

-----------------------------Solution composition------------------------------

	Elements           Molality       Moles

	Cl                5.000e-04   5.000e-04
	K                 5.000e-04   5.000e-04

----------------------------Description of solution----------------------------

                                       pH  =   5.595      Charge balance
                                       pe  =   3.710      Adjusted to redox equilibrium
       Specific Conductance (uS/cm, 230 oC) = 11
                          Density (g/cm3)  =   0.82717
                        Activity of water  =   1.000
                           Ionic strength  =   5.027e-04
                       Mass of water (kg)  =   1.000e+00
                 Total alkalinity (eq/kg)  =   3.410e-10
                    Total carbon (mol/kg)  =   0.000e+00
                       Total CO2 (mol/kg)  =   0.000e+00
                      Temperature (deg C)  = 230.00
                           Pressure (atm)  = 27.65
                  Electrical balance (eq)  =  -2.741e-12
 Percent error, 100*(Cat-|An|)/(Cat+|An|)  =  -0.00
                               Iterations  =  17
                                  Total H  = 1.110124e+02
                                  Total O  = 5.550622e+01

----------------------------Distribution of species----------------------------

                                               Log       Log       Log    mole V
   Species          Molality    Activity  Molality  Activity     Gamma   cm3/mol

   OH-             2.656e-06   2.538e-06    -5.576    -5.595    -0.020    -50.35
   H+              2.656e-06   2.543e-06    -5.576    -5.595    -0.019      0.00
   H2O             5.551e+01   1.000e+00     1.744    -0.000     0.000     21.78
Cl            5.000e-04
   Cl-             5.000e-04   4.778e-04    -3.301    -3.321    -0.020    -29.63
H(0)          1.019e-22
   H2              5.095e-23   5.095e-23   -22.293   -22.293     0.000     28.54
K             5.000e-04
   K+              5.000e-04   4.778e-04    -3.301    -3.321    -0.020    -10.86
   KOH             6.514e-13   6.514e-13   -12.186   -12.186     0.000     (0)  
O(0)          4.945e-09
   O2              2.472e-09   2.473e-09    -8.607    -8.607     0.000     42.94

------------------------------Saturation indices-------------------------------

	Phase               SI   log IAP   log K(503 K,  28 atm)

	H2(g)           -19.60    -22.29   -2.69  H2
	H2O(g)            1.39     -0.00   -1.39  H2O
	O2(g)            -5.86     -8.61   -2.75  O2


------------------
End of simulation.
------------------

------------------------------------
Reading input data for simulation 6.
------------------------------------

------------------------------
End of Run after 0.05 Seconds.
------------------------------

